self exe links to: /tmp/benchmarks/JPEG/gpgpu_ptx_sim__JPEG
self exe links to: /tmp/benchmarks/JPEG/gpgpu_ptx_sim__JPEG
4


        *** GPGPU-Sim Simulator Version 4.2.0  [build gpgpu-sim_git-commit-e22adaf_modified_0.0] ***


GPGPU-Sim PTX: simulation mode 0 (can change with PTX_SIM_MODE_FUNC environment variable:
               1=functional simulation only, 0=detailed performance simulator)
GPGPU-Sim: Configuration options:

-save_embedded_ptx                      1 # saves ptx files embedded in binary as <n>.ptx
-keep                                   0 # keep intermediate files created by GPGPU-Sim when interfacing with external programs
-gpgpu_ptx_save_converted_ptxplus                    0 # Saved converted ptxplus to a file
-gpgpu_occupancy_sm_number                   20 # The SM number to pass to ptxas when getting register usage for computing GPU occupancy. This parameter is required in the config.
-ptx_opcode_latency_int      4,13,4,5,145,32 # Opcode latencies for integers <ADD,MAX,MUL,MAD,DIV,SHFL>Default 1,1,19,25,145,32
-ptx_opcode_latency_fp          4,13,4,5,39 # Opcode latencies for single precision floating points <ADD,MAX,MUL,MAD,DIV>Default 1,1,1,1,30
-ptx_opcode_latency_dp         8,19,8,8,330 # Opcode latencies for double precision floating points <ADD,MAX,MUL,MAD,DIV>Default 8,8,8,8,335
-ptx_opcode_latency_sfu                    8 # Opcode latencies for SFU instructionsDefault 8
-ptx_opcode_latency_tesnor                   64 # Opcode latencies for Tensor instructionsDefault 64
-ptx_opcode_initiation_int          1,2,2,1,8,4 # Opcode initiation intervals for integers <ADD,MAX,MUL,MAD,DIV,SHFL>Default 1,1,4,4,32,4
-ptx_opcode_initiation_fp            1,2,1,1,4 # Opcode initiation intervals for single precision floating points <ADD,MAX,MUL,MAD,DIV>Default 1,1,1,1,5
-ptx_opcode_initiation_dp         8,16,8,8,130 # Opcode initiation intervals for double precision floating points <ADD,MAX,MUL,MAD,DIV>Default 8,8,8,8,130
-ptx_opcode_initiation_sfu                    8 # Opcode initiation intervals for sfu instructionsDefault 8
-ptx_opcode_initiation_tensor                   64 # Opcode initiation intervals for tensor instructionsDefault 64
-cdp_latency         7200,8000,100,12000,1600 # CDP API latency <cudaStreamCreateWithFlags, cudaGetParameterBufferV2_init_perWarp, cudaGetParameterBufferV2_perKernel, cudaLaunchDeviceV2_init_perWarp, cudaLaunchDevicV2_perKernel>Default 7200,8000,100,12000,1600
-network_mode                           1 # Interconnection network mode
-inter_config_file   config_fermi_islip.icnt # Interconnection network config file
-icnt_in_buffer_limit                   64 # in_buffer_limit
-icnt_out_buffer_limit                   64 # out_buffer_limit
-icnt_subnets                           2 # subnets
-icnt_arbiter_algo                      1 # arbiter_algo
-icnt_verbose                           0 # inct_verbose
-icnt_grant_cycles                      1 # grant_cycles
-gpgpu_ptx_use_cuobjdump                    1 # Use cuobjdump to extract ptx and sass from binaries
-gpgpu_experimental_lib_support                    0 # Try to extract code from cuda libraries [Broken because of unknown cudaGetExportTable]
-checkpoint_option                      0 #  checkpointing flag (0 = no checkpoint)
-checkpoint_kernel                      1 #  checkpointing during execution of which kernel (1- 1st kernel)
-checkpoint_CTA                         0 #  checkpointing after # of CTA (< less than total CTA)
-resume_option                          0 #  resume flag (0 = no resume)
-resume_kernel                          0 #  Resume from which kernel (1= 1st kernel)
-resume_CTA                             0 #  resume from which CTA 
-checkpoint_CTA_t                       0 #  resume from which CTA 
-checkpoint_insn_Y                      0 #  resume from which CTA 
-gpgpu_ptx_convert_to_ptxplus                    0 # Convert SASS (native ISA) to ptxplus and run ptxplus
-gpgpu_ptx_force_max_capability                   20 # Force maximum compute capability
-gpgpu_ptx_inst_debug_to_file                    0 # Dump executed instructions' debug information to file
-gpgpu_ptx_inst_debug_file       inst_debug.txt # Executed instructions' debug output file
-gpgpu_ptx_inst_debug_thread_uid                    1 # Thread UID for executed instructions' debug output
-gpgpu_simd_model                       1 # 1 = post-dominator
-gpgpu_shader_core_pipeline              1536:32 # shader core pipeline config, i.e., {<nthread>:<warpsize>}
-gpgpu_tex_cache:l1  N:4:128:24,L:R:m:N:L,T:128:4,128:2 # per-shader L1 texture cache  (READ-ONLY) config  {<nsets>:<bsize>:<assoc>,<rep>:<wr>:<alloc>:<wr_alloc>,<mshr>:<N>:<merge>,<mq>:<rf>}
-gpgpu_const_cache:l1 N:64:64:2,L:R:f:N:L,S:2:32,4 # per-shader L1 constant memory cache  (READ-ONLY) config  {<nsets>:<bsize>:<assoc>,<rep>:<wr>:<alloc>:<wr_alloc>,<mshr>:<N>:<merge>,<mq>} 
-gpgpu_cache:il1     N:4:128:4,L:R:f:N:L,S:2:32,4 # shader L1 instruction cache config  {<nsets>:<bsize>:<assoc>,<rep>:<wr>:<alloc>:<wr_alloc>,<mshr>:<N>:<merge>,<mq>} 
-gpgpu_cache:dl1     N:32:128:4,L:L:m:N:H,S:64:8,8 # per-shader L1 data cache config  {<nsets>:<bsize>:<assoc>,<rep>:<wr>:<alloc>:<wr_alloc>,<mshr>:<N>:<merge>,<mq> | none}
-gpgpu_l1_cache_write_ratio                    0 # L1D write ratio
-gpgpu_l1_banks                         1 # The number of L1 cache banks
-gpgpu_l1_banks_byte_interleaving                   32 # l1 banks byte interleaving granularity
-gpgpu_l1_banks_hashing_function                    0 # l1 banks hashing function
-gpgpu_l1_latency                      35 # L1 Hit Latency
-gpgpu_smem_latency                    26 # smem Latency
-gpgpu_cache:dl1PrefL1                 none # per-shader L1 data cache config  {<nsets>:<bsize>:<assoc>,<rep>:<wr>:<alloc>:<wr_alloc>,<mshr>:<N>:<merge>,<mq> | none}
-gpgpu_cache:dl1PrefShared                 none # per-shader L1 data cache config  {<nsets>:<bsize>:<assoc>,<rep>:<wr>:<alloc>:<wr_alloc>,<mshr>:<N>:<merge>,<mq> | none}
-gpgpu_gmem_skip_L1D                    0 # global memory access skip L1D cache (implements -Xptxas -dlcm=cg, default=no skip)
-gpgpu_perfect_mem                      0 # enable perfect memory mode (no cache miss)
-n_regfile_gating_group                    4 # group of lanes that should be read/written together)
-gpgpu_clock_gated_reg_file                    0 # enable clock gated reg file for power calculations
-gpgpu_clock_gated_lanes                    0 # enable clock gated lanes for power calculations
-gpgpu_shader_registers                32768 # Number of registers per shader core. Limits number of concurrent CTAs. (default 8192)
-gpgpu_registers_per_block                 8192 # Maximum number of registers per CTA. (default 8192)
-gpgpu_ignore_resources_limitation                    0 # gpgpu_ignore_resources_limitation (default 0)
-gpgpu_shader_cta                       8 # Maximum number of concurrent CTAs in shader (default 32)
-gpgpu_num_cta_barriers                   16 # Maximum number of named barriers per CTA (default 16)
-gpgpu_n_clusters                      15 # number of processing clusters
-gpgpu_n_cores_per_cluster                    1 # number of simd cores per cluster
-gpgpu_n_cluster_ejection_buffer_size                   32 # number of packets in ejection buffer
-gpgpu_n_ldst_response_buffer_size                    2 # number of response packets in ld/st unit ejection buffer
-gpgpu_shmem_per_block                49152 # Size of shared memory per thread block or CTA (default 48kB)
-gpgpu_shmem_size                   49152 # Size of shared memory per shader core (default 16kB)
-gpgpu_shmem_option                     0 # Option list of shared memory sizes
-gpgpu_unified_l1d_size                    0 # Size of unified data cache(L1D + shared memory) in KB
-gpgpu_adaptive_cache_config                    0 # adaptive_cache_config
-gpgpu_shmem_sizeDefault                49152 # Size of shared memory per shader core (default 16kB)
-gpgpu_shmem_size_PrefL1                16384 # Size of shared memory per shader core (default 16kB)
-gpgpu_shmem_size_PrefShared                16384 # Size of shared memory per shader core (default 16kB)
-gpgpu_shmem_num_banks                   32 # Number of banks in the shared memory in each shader core (default 16)
-gpgpu_shmem_limited_broadcast                    0 # Limit shared memory to do one broadcast per cycle (default on)
-gpgpu_shmem_warp_parts                    1 # Number of portions a warp is divided into for shared memory bank conflict check 
-gpgpu_mem_unit_ports                    1 # The number of memory transactions allowed per core cycle
-gpgpu_shmem_warp_parts                    1 # Number of portions a warp is divided into for shared memory bank conflict check 
-gpgpu_warpdistro_shader                   -1 # Specify which shader core to collect the warp size distribution from
-gpgpu_warp_issue_shader                    0 # Specify which shader core to collect the warp issue distribution from
-gpgpu_local_mem_map                    1 # Mapping from local memory space address to simulated GPU physical address space (default = enabled)
-gpgpu_num_reg_banks                   16 # Number of register banks (default = 8)
-gpgpu_reg_bank_use_warp_id                    0 # Use warp ID in mapping registers to banks (default = off)
-gpgpu_sub_core_model                    0 # Sub Core Volta/Pascal model (default = off)
-gpgpu_enable_specialized_operand_collector                    1 # enable_specialized_operand_collector
-gpgpu_operand_collector_num_units_sp                    6 # number of collector units (default = 4)
-gpgpu_operand_collector_num_units_dp                    0 # number of collector units (default = 0)
-gpgpu_operand_collector_num_units_sfu                    8 # number of collector units (default = 4)
-gpgpu_operand_collector_num_units_int                    0 # number of collector units (default = 0)
-gpgpu_operand_collector_num_units_tensor_core                    4 # number of collector units (default = 4)
-gpgpu_operand_collector_num_units_mem                    2 # number of collector units (default = 2)
-gpgpu_operand_collector_num_units_gen                    0 # number of collector units (default = 0)
-gpgpu_operand_collector_num_in_ports_sp                    2 # number of collector unit in ports (default = 1)
-gpgpu_operand_collector_num_in_ports_dp                    0 # number of collector unit in ports (default = 0)
-gpgpu_operand_collector_num_in_ports_sfu                    1 # number of collector unit in ports (default = 1)
-gpgpu_operand_collector_num_in_ports_int                    0 # number of collector unit in ports (default = 0)
-gpgpu_operand_collector_num_in_ports_tensor_core                    1 # number of collector unit in ports (default = 1)
-gpgpu_operand_collector_num_in_ports_mem                    1 # number of collector unit in ports (default = 1)
-gpgpu_operand_collector_num_in_ports_gen                    0 # number of collector unit in ports (default = 0)
-gpgpu_operand_collector_num_out_ports_sp                    2 # number of collector unit in ports (default = 1)
-gpgpu_operand_collector_num_out_ports_dp                    0 # number of collector unit in ports (default = 0)
-gpgpu_operand_collector_num_out_ports_sfu                    1 # number of collector unit in ports (default = 1)
-gpgpu_operand_collector_num_out_ports_int                    0 # number of collector unit in ports (default = 0)
-gpgpu_operand_collector_num_out_ports_tensor_core                    1 # number of collector unit in ports (default = 1)
-gpgpu_operand_collector_num_out_ports_mem                    1 # number of collector unit in ports (default = 1)
-gpgpu_operand_collector_num_out_ports_gen                    0 # number of collector unit in ports (default = 0)
-gpgpu_coalesce_arch                   20 # Coalescing arch (GT200 = 13, Fermi = 20)
-gpgpu_num_sched_per_core                    2 # Number of warp schedulers per core
-gpgpu_max_insn_issue_per_warp                    1 # Max number of instructions that can be issued per warp in one cycle by scheduler (either 1 or 2)
-gpgpu_dual_issue_diff_exec_units                    1 # should dual issue use two different execution unit resources (Default = 1)
-gpgpu_simt_core_sim_order                    1 # Select the simulation order of cores in a cluster (0=Fix, 1=Round-Robin)
-gpgpu_pipeline_widths 2,0,0,1,1,2,0,0,1,1,2 # Pipeline widths ID_OC_SP,ID_OC_DP,ID_OC_INT,ID_OC_SFU,ID_OC_MEM,OC_EX_SP,OC_EX_DP,OC_EX_INT,OC_EX_SFU,OC_EX_MEM,EX_WB,ID_OC_TENSOR_CORE,OC_EX_TENSOR_CORE
-gpgpu_tensor_core_avail                    0 # Tensor Core Available (default=0)
-gpgpu_num_sp_units                     2 # Number of SP units (default=1)
-gpgpu_num_dp_units                     0 # Number of DP units (default=0)
-gpgpu_num_int_units                    0 # Number of INT units (default=0)
-gpgpu_num_sfu_units                    1 # Number of SF units (default=1)
-gpgpu_num_tensor_core_units                    0 # Number of tensor_core units (default=1)
-gpgpu_num_mem_units                    1 # Number if ldst units (default=1) WARNING: not hooked up to anything
-gpgpu_scheduler                      gto # Scheduler configuration: < lrr | gto | two_level_active > If two_level_active:<num_active_warps>:<inner_prioritization>:<outer_prioritization>For complete list of prioritization values see shader.h enum scheduler_prioritization_typeDefault: gto
-gpgpu_dynamic_swl                      0 # Use dynamic SWL scheduler
-gpgpu_concurrent_kernel_sm                    0 # Support concurrent kernels on a SM (default = disabled)
-gpgpu_perfect_inst_const_cache                    0 # perfect inst and const cache mode, so all inst and const hits in the cache(default = disabled)
-gpgpu_inst_fetch_throughput                    1 # the number of fetched intruction per warp each cycle
-gpgpu_reg_file_port_throughput                    1 # the number ports of the register file
-specialized_unit_1         0,4,4,4,4,BRA # specialized unit config {<enabled>,<num_units>:<latency>:<initiation>,<ID_OC_SPEC>:<OC_EX_SPEC>,<NAME>}
-specialized_unit_2         0,4,4,4,4,BRA # specialized unit config {<enabled>,<num_units>:<latency>:<initiation>,<ID_OC_SPEC>:<OC_EX_SPEC>,<NAME>}
-specialized_unit_3         0,4,4,4,4,BRA # specialized unit config {<enabled>,<num_units>:<latency>:<initiation>,<ID_OC_SPEC>:<OC_EX_SPEC>,<NAME>}
-specialized_unit_4         0,4,4,4,4,BRA # specialized unit config {<enabled>,<num_units>:<latency>:<initiation>,<ID_OC_SPEC>:<OC_EX_SPEC>,<NAME>}
-specialized_unit_5         0,4,4,4,4,BRA # specialized unit config {<enabled>,<num_units>:<latency>:<initiation>,<ID_OC_SPEC>:<OC_EX_SPEC>,<NAME>}
-specialized_unit_6         0,4,4,4,4,BRA # specialized unit config {<enabled>,<num_units>:<latency>:<initiation>,<ID_OC_SPEC>:<OC_EX_SPEC>,<NAME>}
-specialized_unit_7         0,4,4,4,4,BRA # specialized unit config {<enabled>,<num_units>:<latency>:<initiation>,<ID_OC_SPEC>:<OC_EX_SPEC>,<NAME>}
-specialized_unit_8         0,4,4,4,4,BRA # specialized unit config {<enabled>,<num_units>:<latency>:<initiation>,<ID_OC_SPEC>:<OC_EX_SPEC>,<NAME>}
-gpgpu_perf_sim_memcpy                    1 # Fill the L2 cache on memcpy
-gpgpu_simple_dram_model                    0 # simple_dram_model with fixed latency and BW
-gpgpu_dram_scheduler                    1 # 0 = fifo, 1 = FR-FCFS (defaul)
-gpgpu_dram_partition_queues          64:64:64:64 # i2$:$2d:d2$:$2i
-l2_ideal                               0 # Use a ideal L2 cache that always hit
-gpgpu_cache:dl2     S:64:128:8,L:B:m:L:L,A:256:4,4:0,32 # unified banked L2 data cache config  {<nsets>:<bsize>:<assoc>,<rep>:<wr>:<alloc>:<wr_alloc>,<mshr>:<N>:<merge>,<mq>}
-gpgpu_cache:dl2_texture_only                    0 # L2 cache used for texture only
-gpgpu_n_mem                            6 # number of memory modules (e.g. memory controllers) in gpu
-gpgpu_n_sub_partition_per_mchannel                    2 # number of memory subpartition in each memory module
-gpgpu_n_mem_per_ctrlr                    2 # number of memory chips per memory controller
-gpgpu_memlatency_stat                   14 # track and display latency statistics 0x2 enables MC, 0x4 enables queue logs
-gpgpu_frfcfs_dram_sched_queue_size                   64 # 0 = unlimited (default); # entries per chip
-gpgpu_dram_return_queue_size                  116 # 0 = unlimited (default); # entries per chip
-gpgpu_dram_buswidth                    4 # default = 4 bytes (8 bytes per cycle at DDR)
-gpgpu_dram_burst_length                    8 # Burst length of each DRAM request (default = 4 data bus cycle)
-dram_data_command_freq_ratio                    4 # Frequency ratio between DRAM data bus and command bus (default = 2 times, i.e. DDR)
-gpgpu_dram_timing_opt nbk=16:CCD=2:RRD=6:RCD=12:RAS=28:RP=12:RC=40: CL=12:WL=4:CDLR=5:WR=12:nbkgrp=4:CCDL=3:RTPL=2 # DRAM timing parameters = {nbk:tCCD:tRRD:tRCD:tRAS:tRP:tRC:CL:WL:tCDLR:tWR:nbkgrp:tCCDL:tRTPL}
-gpgpu_l2_rop_latency                  120 # ROP queue latency (default 85)
-dram_latency                         100 # DRAM latency (default 30)
-dram_dual_bus_interface                    0 # dual_bus_interface (default = 0) 
-dram_bnk_indexing_policy                    0 # dram_bnk_indexing_policy (0 = normal indexing, 1 = Xoring with the higher bits) (Default = 0)
-dram_bnkgrp_indexing_policy                    1 # dram_bnkgrp_indexing_policy (0 = take higher bits, 1 = take lower bits) (Default = 0)
-dram_seperate_write_queue_enable                    0 # Seperate_Write_Queue_Enable
-dram_write_queue_size             32:28:16 # Write_Queue_Size
-dram_elimnate_rw_turnaround                    0 # elimnate_rw_turnaround i.e set tWTR and tRTW = 0
-icnt_flit_size                        40 # icnt_flit_size
-SST_mode                               0 # SST mode
-gpgpu_mem_addr_mapping dramid@8;00000000.00000000.00000000.00000000.0000RRRR.RRRRRRRR.BBBCCCCB.CCSSSSSS # mapping memory address to dram model {dramid@<start bit>;<memory address map>}
-gpgpu_mem_addr_test                    0 # run sweep test to check address mapping for aliased address
-gpgpu_mem_address_mask                    1 # 0 = old addressing mask, 1 = new addressing mask, 2 = new add. mask + flipped bank sel and chip sel bits
-gpgpu_memory_partition_indexing                    0 # 0 = no indexing, 1 = bitwise xoring, 2 = IPoly, 3 = custom indexing
-accelwattch_xml_file accelwattch_sass_sim.xml # AccelWattch XML file
-power_simulation_enabled                    0 # Turn on power simulator (1=On, 0=Off)
-power_per_cycle_dump                    0 # Dump detailed power output each cycle
-hw_perf_file_name            hw_perf.csv # Hardware Performance Statistics file
-hw_perf_bench_name                       # Kernel Name in Hardware Performance Statistics file
-power_simulation_mode                    0 # Switch performance counter input for power simulation (0=Sim, 1=HW, 2=HW-Sim Hybrid)
-dvfs_enabled                           0 # Turn on DVFS for power model
-aggregate_power_stats                    0 # Accumulate power across all kernels
-accelwattch_hybrid_perfsim_L1_RH                    0 # Get L1 Read Hits for Accelwattch-Hybrid from Accel-Sim
-accelwattch_hybrid_perfsim_L1_RM                    0 # Get L1 Read Misses for Accelwattch-Hybrid from Accel-Sim
-accelwattch_hybrid_perfsim_L1_WH                    0 # Get L1 Write Hits for Accelwattch-Hybrid from Accel-Sim
-accelwattch_hybrid_perfsim_L1_WM                    0 # Get L1 Write Misses for Accelwattch-Hybrid from Accel-Sim
-accelwattch_hybrid_perfsim_L2_RH                    0 # Get L2 Read Hits for Accelwattch-Hybrid from Accel-Sim
-accelwattch_hybrid_perfsim_L2_RM                    0 # Get L2 Read Misses for Accelwattch-Hybrid from Accel-Sim
-accelwattch_hybrid_perfsim_L2_WH                    0 # Get L2 Write Hits for Accelwattch-Hybrid from Accel-Sim
-accelwattch_hybrid_perfsim_L2_WM                    0 # Get L2 Write Misses for Accelwattch-Hybrid from Accel-Sim
-accelwattch_hybrid_perfsim_CC_ACC                    0 # Get Constant Cache Acesses for Accelwattch-Hybrid from Accel-Sim
-accelwattch_hybrid_perfsim_SHARED_ACC                    0 # Get Shared Memory Acesses for Accelwattch-Hybrid from Accel-Sim
-accelwattch_hybrid_perfsim_DRAM_RD                    0 # Get DRAM Reads for Accelwattch-Hybrid from Accel-Sim
-accelwattch_hybrid_perfsim_DRAM_WR                    0 # Get DRAM Writes for Accelwattch-Hybrid from Accel-Sim
-accelwattch_hybrid_perfsim_NOC                    0 # Get Interconnect Acesses for Accelwattch-Hybrid from Accel-Sim
-accelwattch_hybrid_perfsim_PIPE_DUTY                    0 # Get Pipeline Duty Cycle Acesses for Accelwattch-Hybrid from Accel-Sim
-accelwattch_hybrid_perfsim_NUM_SM_IDLE                    0 # Get Number of Idle SMs for Accelwattch-Hybrid from Accel-Sim
-accelwattch_hybrid_perfsim_CYCLES                    0 # Get Executed Cycles for Accelwattch-Hybrid from Accel-Sim
-accelwattch_hybrid_perfsim_VOLTAGE                    0 # Get Chip Voltage for Accelwattch-Hybrid from Accel-Sim
-power_trace_enabled                    0 # produce a file for the power trace (1=On, 0=Off)
-power_trace_zlevel                     6 # Compression level of the power trace output log (0=no comp, 9=highest)
-steady_power_levels_enabled                    0 # produce a file for the steady power levels (1=On, 0=Off)
-steady_state_definition                  8:4 # allowed deviation:number of samples
-gpgpu_max_cycle                        0 # terminates gpu simulation early (0 = no limit)
-gpgpu_max_insn                         0 # terminates gpu simulation early (0 = no limit)
-gpgpu_max_cta                          0 # terminates gpu simulation early (0 = no limit)
-gpgpu_max_completed_cta                    0 # terminates gpu simulation early (0 = no limit)
-gpgpu_runtime_stat                   500 # display runtime statistics such as dram utilization {<freq>:<flag>}
-liveness_message_freq                    1 # Minimum number of seconds between simulation liveness messages (0 = always print)
-gpgpu_compute_capability_major                    2 # Major compute capability version number
-gpgpu_compute_capability_minor                    0 # Minor compute capability version number
-gpgpu_flush_l1_cache                    1 # Flush L1 cache at the end of each kernel call
-gpgpu_flush_l2_cache                    0 # Flush L2 cache at the end of each kernel call
-gpgpu_deadlock_detect                    1 # Stop the simulation at deadlock (1=on (default), 0=off)
-gpgpu_ptx_instruction_classification                    0 # if enabled will classify ptx instruction types per kernel (Max 255 kernels now)
-gpgpu_ptx_sim_mode                     0 # Select between Performance (default) or Functional simulation (1)
-gpgpu_clock_domains 700.0:700.0:700.0:924.0 # Clock Domain Frequencies in MhZ {<Core Clock>:<ICNT Clock>:<L2 Clock>:<DRAM Clock>}
-gpgpu_max_concurrent_kernel                   32 # maximum kernels that can run concurrently on GPU, set this value according to max resident grids for your compute capability
-gpgpu_cflog_interval                    0 # Interval between each snapshot in control flow logger
-visualizer_enabled                     0 # Turn on visualizer output (1=On, 0=Off)
-visualizer_outputfile                 NULL # Specifies the output log file for visualizer
-visualizer_zlevel                      6 # Compression level of the visualizer output log (0=no comp, 9=highest)
-gpgpu_stack_size_limit                 1024 # GPU thread stack size
-gpgpu_heap_size_limit              8388608 # GPU malloc heap size 
-gpgpu_runtime_sync_depth_limit                    2 # GPU device runtime synchronize depth
-gpgpu_runtime_pending_launch_count_limit                 2048 # GPU device runtime pending launch count
-trace_enabled                          0 # Turn on traces
-trace_components                    none # comma seperated list of traces to enable. Complete list found in trace_streams.tup. Default none
-trace_sampling_core                    0 # The core which is printed using CORE_DPRINTF. Default 0
-trace_sampling_memory_partition                   -1 # The memory partition which is printed using MEMPART_DPRINTF. Default -1 (i.e. all)
-enable_ptx_file_line_stats                    1 # Turn on PTX source line statistic profiling. (1 = On)
-ptx_line_stats_filename gpgpu_inst_stats.txt # Output file for PTX source line statistics.
-gpgpu_kernel_launch_latency                    0 # Kernel launch latency in cycles. Default: 0
-gpgpu_cdp_enabled                      0 # Turn on CDP
-gpgpu_TB_launch_latency                    0 # thread block launch latency in cycles. Default: 0
DRAM Timing Options:
nbk                                    16 # number of banks
CCD                                     2 # column to column delay
RRD                                     6 # minimal delay between activation of rows in different banks
RCD                                    12 # row to column delay
RAS                                    28 # time needed to activate row
RP                                     12 # time needed to precharge (deactivate) row
RC                                     40 # row cycle time
CDLR                                    5 # switching from write to read (changes tWTR)
WR                                     12 # last data-in to row precharge
CL                                     12 # CAS latency
WL                                      4 # Write latency
nbkgrp                                  4 # number of bank groups
CCDL                                    3 # column to column delay between accesses to different bank groups
RTPL                                    2 # read to precharge delay between accesses to different bank groups
Total number of memory sub partition = 12
addr_dec_mask[CHIP]  = 0000000000000000 	high:64 low:0
addr_dec_mask[BK]    = 000000000000e100 	high:16 low:8
addr_dec_mask[ROW]   = 000000000fff0000 	high:28 low:16
addr_dec_mask[COL]   = 0000000000001eff 	high:13 low:0
addr_dec_mask[BURST] = 000000000000003f 	high:6 low:0
sub_partition_id_mask = 0000000000000100
GPGPU-Sim uArch: clock freqs: 700000000.000000:700000000.000000:700000000.000000:924000000.000000
GPGPU-Sim uArch: clock periods: 0.00000000142857142857:0.00000000142857142857:0.00000000142857142857:0.00000000108225108225
*** Initializing Memory Statistics ***
GPGPU-Sim uArch: interconnect node map (shaderID+MemID to icntID)
GPGPU-Sim uArch: Memory nodes ID start from index: 15
GPGPU-Sim uArch:    0   1   2   3   4
GPGPU-Sim uArch:    5   6   7   8   9
GPGPU-Sim uArch:   10  11  12  13  14
GPGPU-Sim uArch:   15  16  17  18  19
GPGPU-Sim uArch:   20  21  22  23  24
GPGPU-Sim uArch:   25  26
GPGPU-Sim uArch: interconnect node reverse map (icntID to shaderID+MemID)
GPGPU-Sim uArch: Memory nodes start from ID: 15
GPGPU-Sim uArch:    0   1   2   3   4
GPGPU-Sim uArch:    5   6   7   8   9
GPGPU-Sim uArch:   10  11  12  13  14
GPGPU-Sim uArch:   15  16  17  18  19
GPGPU-Sim uArch:   20  21  22  23  24
GPGPU-Sim uArch:   25  26
e109f39bfc5f6d95d6ae3490cbeba362  /tmp/benchmarks/JPEG/gpgpu_ptx_sim__JPEG
GPGPU-Sim uArch: performance model initialization complete.
GPGPU-Sim PTX: __cudaRegisterFatBinary, fat_cubin_handle = 1, filename=dct8x8.cu
self exe links to: /tmp/benchmarks/JPEG/gpgpu_ptx_sim__JPEG
Running md5sum using "md5sum /tmp/benchmarks/JPEG/gpgpu_ptx_sim__JPEG "
Parsing file _cuobjdump_complete_output_4c54Ih
######### cuobjdump parser ########
## Adding new section ELF
Adding arch: sm_10
Adding identifier: dct8x8.cu
## Adding new section PTX
Adding ptx filename: _cuobjdump_1.ptx
Adding arch: sm_10
Adding identifier: dct8x8.cu
Done parsing!!!
GPGPU-Sim PTX: __cudaRegisterFunction _Z27CUDAkernelQuantizationShortPsi : hostFun 0x0x40782c, fat_cubin_handle = 1
GPGPU-Sim PTX: encountered texture directive TexSrc.
GPGPU-Sim PTX: allocating shared region for "CurBlockLocal1" from 0x0 to 0x100 (shared memory space)
GPGPU-Sim PTX: allocating shared region for "CurBlockLocal2" from 0x100 to 0x200 (shared memory space)
GPGPU-Sim PTX: allocating constant region for "DCTv8matrix" from 0x100 to 0x200 (global memory space) 1
GPGPU-Sim PTX: instruction assembly for function '_Z14CUDAkernel1DCTPfiii'...   done.
GPGPU-Sim PTX: instruction assembly for function '_Z15CUDAkernel1IDCTPfiii'...   done.
GPGPU-Sim PTX: allocating constant region for "C_a" from 0x200 to 0x204 (global memory space) 2
GPGPU-Sim PTX: allocating constant region for "C_b" from 0x204 to 0x208 (global memory space) 3
GPGPU-Sim PTX: allocating constant region for "C_c" from 0x208 to 0x20c (global memory space) 4
GPGPU-Sim PTX: allocating constant region for "C_d" from 0x20c to 0x210 (global memory space) 5
GPGPU-Sim PTX: allocating constant region for "C_e" from 0x210 to 0x214 (global memory space) 6
GPGPU-Sim PTX: allocating constant region for "C_f" from 0x214 to 0x218 (global memory space) 7
GPGPU-Sim PTX: allocating constant region for "C_norm" from 0x218 to 0x21c (global memory space) 8
GPGPU-Sim PTX: allocating shared region for "__cuda___cuda_local_var_37942_32_non_const_block572" from 0x200 to 0xa40 (shared memory space)
GPGPU-Sim PTX: instruction assembly for function '_Z14CUDAkernel2DCTPfi'...   done.
GPGPU-Sim PTX: allocating shared region for "__cuda___cuda_local_var_38058_32_non_const_block2700" from 0x200 to 0xa40 (shared memory space)
GPGPU-Sim PTX: instruction assembly for function '_Z15CUDAkernel2IDCTPfi'...   done.
GPGPU-Sim PTX: allocating shared region for "__cuda___cuda_local_var_38475_32_non_const_block4828" from 0x200 to 0xa80 (shared memory space)
GPGPU-Sim PTX: instruction assembly for function '_Z18CUDAkernelShortDCTPsi'...   done.
GPGPU-Sim PTX: allocating shared region for "__cuda___cuda_local_var_38603_32_non_const_block7020" from 0x200 to 0xa80 (shared memory space)
GPGPU-Sim PTX: instruction assembly for function '_Z19CUDAkernelShortIDCTPsi'...   done.
GPGPU-Sim PTX: allocating constant region for "Q" from 0x280 to 0x300 (global memory space) 9
GPGPU-Sim PTX: instruction assembly for function '_Z27CUDAkernelQuantizationFloatPfi'...   done.
GPGPU-Sim PTX: instruction assembly for function '_Z27CUDAkernelQuantizationShortPsi'...   done.
GPGPU-Sim PTX: Warning TexSrc was declared previous at _1.ptx:52 skipping new declaration
GPGPU-Sim PTX: Warning CurBlockLocal1 was declared previous at _1.ptx:53 skipping new declaration
GPGPU-Sim PTX: Warning CurBlockLocal2 was declared previous at _1.ptx:54 skipping new declaration
GPGPU-Sim PTX: Warning DCTv8matrix was declared previous at _1.ptx:55 skipping new declaration
GPGPU-Sim PTX: Warning %r0 was declared previous at _1.ptx:63 skipping new declaration
GPGPU-Sim PTX: Warning %r1 was declared previous at _1.ptx:63 skipping new declaration
GPGPU-Sim PTX: Warning %r2 was declared previous at _1.ptx:63 skipping new declaration
GPGPU-Sim PTX: Warning %r3 was declared previous at _1.ptx:63 skipping new declaration
GPGPU-Sim PTX: Warning %r4 was declared previous at _1.ptx:63 skipping new declaration
GPGPU-Sim PTX: Warning %r5 was declared previous at _1.ptx:63 skipping new declaration
GPGPU-Sim PTX: Warning %r6 was declared previous at _1.ptx:63 skipping new declaration
GPGPU-Sim PTX: Warning %r7 was declared previous at _1.ptx:63 skipping new declaration
GPGPU-Sim PTX: Warning %r8 was declared previous at _1.ptx:63 skipping new declaration
GPGPU-Sim PTX: Warning %r9 was declared previous at _1.ptx:63 skipping new declaration
GPGPU-Sim PTX: Warning %r10 was declared previous at _1.ptx:63 skipping new declaration
GPGPU-Sim PTX: Warning %r11 was declared previous at _1.ptx:63 skipping new declaration
GPGPU-Sim PTX: Warning %r12 was declared previous at _1.ptx:63 skipping new declaration
GPGPU-Sim PTX: Warning %r13 was declared previous at _1.ptx:63 skipping new declaration
GPGPU-Sim PTX: Warning %r14 was declared previous at _1.ptx:63 skipping new declaration
GPGPU-Sim PTX: Warning %r15 was declared previous at _1.ptx:63 skipping new declaration
GPGPU-Sim PTX: Warning %r16 was declared previous at _1.ptx:63 skipping new declaration
GPGPU-Sim PTX: Warning %r17 was declared previous at _1.ptx:63 skipping new declaration
GPGPU-Sim PTX: Warning %r18 was declared previous at _1.ptx:63 skipping new declaration
GPGPU-Sim PTX: Warning %rd0 was declared previous at _1.ptx:64 skipping new declaration
GPGPU-Sim PTX: Warning %rd1 was declared previous at _1.ptx:64 skipping new declaration
GPGPU-Sim PTX: Warning %rd2 was declared previous at _1.ptx:64 skipping new declaration
GPGPU-Sim PTX: Warning %rd3 was declared previous at _1.ptx:64 skipping new declaration
GPGPU-Sim PTX: Warning %rd4 was declared previous at _1.ptx:64 skipping new declaration
GPGPU-Sim PTX: Warning %rd5 was declared previous at _1.ptx:64 skipping new declaration
GPGPU-Sim PTX: Warning %rd6 was declared previous at _1.ptx:64 skipping new declaration
GPGPU-Sim PTX: Warning %rd7 was declared previous at _1.ptx:64 skipping new declaration
GPGPU-Sim PTX: Warning %rd8 was declared previous at _1.ptx:64 skipping new declaration
GPGPU-Sim PTX: Warning %rd9 was declared previous at _1.ptx:64 skipping new declaration
GPGPU-Sim PTX: Warning %rd10 was declared previous at _1.ptx:64 skipping new declaration
GPGPU-Sim PTX: Warning %rd11 was declared previous at _1.ptx:64 skipping new declaration
GPGPU-Sim PTX: Warning %rd12 was declared previous at _1.ptx:64 skipping new declaration
GPGPU-Sim PTX: Warning %rd13 was declared previous at _1.ptx:64 skipping new declaration
GPGPU-Sim PTX: Warning %rd14 was declared previous at _1.ptx:64 skipping new declaration
GPGPU-Sim PTX: Warning %rd15 was declared previous at _1.ptx:64 skipping new declaration
GPGPU-Sim PTX: Warning %rd16 was declared previous at _1.ptx:64 skipping new declaration
GPGPU-Sim PTX: Warning %rd17 was declared previous at _1.ptx:64 skipping new declaration
GPGPU-Sim PTX: Warning %rd18 was declared previous at _1.ptx:64 skipping new declaration
GPGPU-Sim PTX: Warning %rd19 was declared previous at _1.ptx:64 skipping new declaration
GPGPU-Sim PTX: Warning %rd20 was declared previous at _1.ptx:64 skipping new declaration
GPGPU-Sim PTX: Warning %rd21 was declared previous at _1.ptx:64 skipping new declaration
GPGPU-Sim PTX: Warning %rd22 was declared previous at _1.ptx:64 skipping new declaration
GPGPU-Sim PTX: Warning %f0 was declared previous at _1.ptx:65 skipping new declaration
GPGPU-Sim PTX: Warning %f1 was declared previous at _1.ptx:65 skipping new declaration
GPGPU-Sim PTX: Warning %f2 was declared previous at _1.ptx:65 skipping new declaration
GPGPU-Sim PTX: Warning %f3 was declared previous at _1.ptx:65 skipping new declaration
GPGPU-Sim PTX: Warning %f4 was declared previous at _1.ptx:65 skipping new declaration
GPGPU-Sim PTX: Warning %f5 was declared previous at _1.ptx:65 skipping new declaration
GPGPU-Sim PTX: Warning %f6 was declared previous at _1.ptx:65 skipping new declaration
GPGPU-Sim PTX: Warning %f7 was declared previous at _1.ptx:65 skipping new declaration
GPGPU-Sim PTX: Warning %f8 was declared previous at _1.ptx:65 skipping new declaration
GPGPU-Sim PTX: Warning %f9 was declared previous at _1.ptx:65 skipping new declaration
GPGPU-Sim PTX: Warning %f10 was declared previous at _1.ptx:65 skipping new declaration
GPGPU-Sim PTX: Warning %f11 was declared previous at _1.ptx:65 skipping new declaration
GPGPU-Sim PTX: Warning %f12 was declared previous at _1.ptx:65 skipping new declaration
GPGPU-Sim PTX: Warning %f13 was declared previous at _1.ptx:65 skipping new declaration
GPGPU-Sim PTX: Warning %f14 was declared previous at _1.ptx:65 skipping new declaration
GPGPU-Sim PTX: Warning %f15 was declared previous at _1.ptx:65 skipping new declaration
GPGPU-Sim PTX: Warning %f16 was declared previous at _1.ptx:65 skipping new declaration
GPGPU-Sim PTX: Warning %f17 was declared previous at _1.ptx:65 skipping new declaration
GPGPU-Sim PTX: Warning %f18 was declared previous at _1.ptx:65 skipping new declaration
GPGPU-Sim PTX: Warning %f19 was declared previous at _1.ptx:65 skipping new declaration
GPGPU-Sim PTX: Warning %f20 was declared previous at _1.ptx:65 skipping new declaration
GPGPU-Sim PTX: Warning %f21 was declared previous at _1.ptx:65 skipping new declaration
GPGPU-Sim PTX: Warning %f22 was declared previous at _1.ptx:65 skipping new declaration
GPGPU-Sim PTX: Warning %f23 was declared previous at _1.ptx:65 skipping new declaration
GPGPU-Sim PTX: Warning %f24 was declared previous at _1.ptx:65 skipping new declaration
GPGPU-Sim PTX: Warning %f25 was declared previous at _1.ptx:65 skipping new declaration
GPGPU-Sim PTX: Warning %f26 was declared previous at _1.ptx:65 skipping new declaration
GPGPU-Sim PTX: Warning %f27 was declared previous at _1.ptx:65 skipping new declaration
GPGPU-Sim PTX: Warning %f28 was declared previous at _1.ptx:65 skipping new declaration
GPGPU-Sim PTX: Warning %f29 was declared previous at _1.ptx:65 skipping new declaration
GPGPU-Sim PTX: Warning %f30 was declared previous at _1.ptx:65 skipping new declaration
GPGPU-Sim PTX: Warning %f31 was declared previous at _1.ptx:65 skipping new declaration
GPGPU-Sim PTX: Warning %f32 was declared previous at _1.ptx:65 skipping new declaration
GPGPU-Sim PTX: Warning %f33 was declared previous at _1.ptx:65 skipping new declaration
GPGPU-Sim PTX: Warning %f34 was declared previous at _1.ptx:65 skipping new declaration
GPGPU-Sim PTX: Warning %f35 was declared previous at _1.ptx:65 skipping new declaration
GPGPU-Sim PTX: Warning %f36 was declared previous at _1.ptx:65 skipping new declaration
GPGPU-Sim PTX: Warning %f37 was declared previous at _1.ptx:65 skipping new declaration
GPGPU-Sim PTX: Warning %f38 was declared previous at _1.ptx:65 skipping new declaration
GPGPU-Sim PTX: Warning %f39 was declared previous at _1.ptx:65 skipping new declaration
GPGPU-Sim PTX: Warning %f40 was declared previous at _1.ptx:65 skipping new declaration
GPGPU-Sim PTX: Warning %f41 was declared previous at _1.ptx:65 skipping new declaration
GPGPU-Sim PTX: Warning %f42 was declared previous at _1.ptx:65 skipping new declaration
GPGPU-Sim PTX: Warning %f43 was declared previous at _1.ptx:65 skipping new declaration
GPGPU-Sim PTX: Warning %f44 was declared previous at _1.ptx:65 skipping new declaration
GPGPU-Sim PTX: Warning %f45 was declared previous at _1.ptx:65 skipping new declaration
GPGPU-Sim PTX: Warning %f46 was declared previous at _1.ptx:65 skipping new declaration
GPGPU-Sim PTX: Warning %f47 was declared previous at _1.ptx:65 skipping new declaration
GPGPU-Sim PTX: Warning %f48 was declared previous at _1.ptx:65 skipping new declaration
GPGPU-Sim PTX: Warning %f49 was declared previous at _1.ptx:65 skipping new declaration
GPGPU-Sim PTX: Warning %f50 was declared previous at _1.ptx:65 skipping new declaration
GPGPU-Sim PTX: Warning %f51 was declared previous at _1.ptx:65 skipping new declaration
GPGPU-Sim PTX: Warning %f52 was declared previous at _1.ptx:65 skipping new declaration
GPGPU-Sim PTX: Warning %f53 was declared previous at _1.ptx:65 skipping new declaration
GPGPU-Sim PTX: Warning %f54 was declared previous at _1.ptx:65 skipping new declaration
GPGPU-Sim PTX: Warning %f55 was declared previous at _1.ptx:65 skipping new declaration
GPGPU-Sim PTX: Warning %f56 was declared previous at _1.ptx:65 skipping new declaration
GPGPU-Sim PTX: Warning %f57 was declared previous at _1.ptx:65 skipping new declaration
GPGPU-Sim PTX: Warning %f58 was declared previous at _1.ptx:65 skipping new declaration
GPGPU-Sim PTX: Warning %f59 was declared previous at _1.ptx:65 skipping new declaration
GPGPU-Sim PTX: Warning %f60 was declared previous at _1.ptx:65 skipping new declaration
GPGPU-Sim PTX: Warning %f61 was declared previous at _1.ptx:65 skipping new declaration
GPGPU-Sim PTX: Warning %f62 was declared previous at _1.ptx:65 skipping new declaration
GPGPU-Sim PTX: Warning %f63 was declared previous at _1.ptx:65 skipping new declaration
GPGPU-Sim PTX: Warning %f64 was declared previous at _1.ptx:65 skipping new declaration
GPGPU-Sim PTX: Warning %f65 was declared previous at _1.ptx:65 skipping new declaration
GPGPU-Sim PTX: Warning %f66 was declared previous at _1.ptx:65 skipping new declaration
GPGPU-Sim PTX: Warning %f67 was declared previous at _1.ptx:65 skipping new declaration
GPGPU-Sim PTX: Warning %f68 was declared previous at _1.ptx:65 skipping new declaration
GPGPU-Sim PTX: Warning %f69 was declared previous at _1.ptx:65 skipping new declaration
GPGPU-Sim PTX: instruction assembly for function '_Z14CUDAkernel1DCTPfiii'...   done.
GPGPU-Sim PTX: Warning %r0 was declared previous at _1.ptx:198 skipping new declaration
GPGPU-Sim PTX: Warning %r1 was declared previous at _1.ptx:198 skipping new declaration
GPGPU-Sim PTX: Warning %r2 was declared previous at _1.ptx:198 skipping new declaration
GPGPU-Sim PTX: Warning %r3 was declared previous at _1.ptx:198 skipping new declaration
GPGPU-Sim PTX: Warning %r4 was declared previous at _1.ptx:198 skipping new declaration
GPGPU-Sim PTX: Warning %r5 was declared previous at _1.ptx:198 skipping new declaration
GPGPU-Sim PTX: Warning %r6 was declared previous at _1.ptx:198 skipping new declaration
GPGPU-Sim PTX: Warning %r7 was declared previous at _1.ptx:198 skipping new declaration
GPGPU-Sim PTX: Warning %r8 was declared previous at _1.ptx:198 skipping new declaration
GPGPU-Sim PTX: Warning %r9 was declared previous at _1.ptx:198 skipping new declaration
GPGPU-Sim PTX: Warning %r10 was declared previous at _1.ptx:198 skipping new declaration
GPGPU-Sim PTX: Warning %r11 was declared previous at _1.ptx:198 skipping new declaration
GPGPU-Sim PTX: Warning %r12 was declared previous at _1.ptx:198 skipping new declaration
GPGPU-Sim PTX: Warning %r13 was declared previous at _1.ptx:198 skipping new declaration
GPGPU-Sim PTX: Warning %r14 was declared previous at _1.ptx:198 skipping new declaration
GPGPU-Sim PTX: Warning %r15 was declared previous at _1.ptx:198 skipping new declaration
GPGPU-Sim PTX: Warning %r16 was declared previous at _1.ptx:198 skipping new declaration
GPGPU-Sim PTX: Warning %r17 was declared previous at _1.ptx:198 skipping new declaration
GPGPU-Sim PTX: Warning %r18 was declared previous at _1.ptx:198 skipping new declaration
GPGPU-Sim PTX: Warning %r19 was declared previous at _1.ptx:198 skipping new declaration
GPGPU-Sim PTX: Warning %rd0 was declared previous at _1.ptx:199 skipping new declaration
GPGPU-Sim PTX: Warning %rd1 was declared previous at _1.ptx:199 skipping new declaration
GPGPU-Sim PTX: Warning %rd2 was declared previous at _1.ptx:199 skipping new declaration
GPGPU-Sim PTX: Warning %rd3 was declared previous at _1.ptx:199 skipping new declaration
GPGPU-Sim PTX: Warning %rd4 was declared previous at _1.ptx:199 skipping new declaration
GPGPU-Sim PTX: Warning %rd5 was declared previous at _1.ptx:199 skipping new declaration
GPGPU-Sim PTX: Warning %rd6 was declared previous at _1.ptx:199 skipping new declaration
GPGPU-Sim PTX: Warning %rd7 was declared previous at _1.ptx:199 skipping new declaration
GPGPU-Sim PTX: Warning %rd8 was declared previous at _1.ptx:199 skipping new declaration
GPGPU-Sim PTX: Warning %rd9 was declared previous at _1.ptx:199 skipping new declaration
GPGPU-Sim PTX: Warning %rd10 was declared previous at _1.ptx:199 skipping new declaration
GPGPU-Sim PTX: Warning %rd11 was declared previous at _1.ptx:199 skipping new declaration
GPGPU-Sim PTX: Warning %rd12 was declared previous at _1.ptx:199 skipping new declaration
GPGPU-Sim PTX: Warning %rd13 was declared previous at _1.ptx:199 skipping new declaration
GPGPU-Sim PTX: Warning %rd14 was declared previous at _1.ptx:199 skipping new declaration
GPGPU-Sim PTX: Warning %rd15 was declared previous at _1.ptx:199 skipping new declaration
GPGPU-Sim PTX: Warning %rd16 was declared previous at _1.ptx:199 skipping new declaration
GPGPU-Sim PTX: Warning %rd17 was declared previous at _1.ptx:199 skipping new declaration
GPGPU-Sim PTX: Warning %rd18 was declared previous at _1.ptx:199 skipping new declaration
GPGPU-Sim PTX: Warning %rd19 was declared previous at _1.ptx:199 skipping new declaration
GPGPU-Sim PTX: Warning %rd20 was declared previous at _1.ptx:199 skipping new declaration
GPGPU-Sim PTX: Warning %rd21 was declared previous at _1.ptx:199 skipping new declaration
GPGPU-Sim PTX: Warning %rd22 was declared previous at _1.ptx:199 skipping new declaration
GPGPU-Sim PTX: Warning %f0 was declared previous at _1.ptx:200 skipping new declaration
GPGPU-Sim PTX: Warning %f1 was declared previous at _1.ptx:200 skipping new declaration
GPGPU-Sim PTX: Warning %f2 was declared previous at _1.ptx:200 skipping new declaration
GPGPU-Sim PTX: Warning %f3 was declared previous at _1.ptx:200 skipping new declaration
GPGPU-Sim PTX: Warning %f4 was declared previous at _1.ptx:200 skipping new declaration
GPGPU-Sim PTX: Warning %f5 was declared previous at _1.ptx:200 skipping new declaration
GPGPU-Sim PTX: Warning %f6 was declared previous at _1.ptx:200 skipping new declaration
GPGPU-Sim PTX: Warning %f7 was declared previous at _1.ptx:200 skipping new declaration
GPGPU-Sim PTX: Warning %f8 was declared previous at _1.ptx:200 skipping new declaration
GPGPU-Sim PTX: Warning %f9 was declared previous at _1.ptx:200 skipping new declaration
GPGPU-Sim PTX: Warning %f10 was declared previous at _1.ptx:200 skipping new declaration
GPGPU-Sim PTX: Warning %f11 was declared previous at _1.ptx:200 skipping new declaration
GPGPU-Sim PTX: Warning %f12 was declared previous at _1.ptx:200 skipping new declaration
GPGPU-Sim PTX: Warning %f13 was declared previous at _1.ptx:200 skipping new declaration
GPGPU-Sim PTX: Warning %f14 was declared previous at _1.ptx:200 skipping new declaration
GPGPU-Sim PTX: Warning %f15 was declared previous at _1.ptx:200 skipping new declaration
GPGPU-Sim PTX: Warning %f16 was declared previous at _1.ptx:200 skipping new declaration
GPGPU-Sim PTX: Warning %f17 was declared previous at _1.ptx:200 skipping new declaration
GPGPU-Sim PTX: Warning %f18 was declared previous at _1.ptx:200 skipping new declaration
GPGPU-Sim PTX: Warning %f19 was declared previous at _1.ptx:200 skipping new declaration
GPGPU-Sim PTX: Warning %f20 was declared previous at _1.ptx:200 skipping new declaration
GPGPU-Sim PTX: Warning %f21 was declared previous at _1.ptx:200 skipping new declaration
GPGPU-Sim PTX: Warning %f22 was declared previous at _1.ptx:200 skipping new declaration
GPGPU-Sim PTX: Warning %f23 was declared previous at _1.ptx:200 skipping new declaration
GPGPU-Sim PTX: Warning %f24 was declared previous at _1.ptx:200 skipping new declaration
GPGPU-Sim PTX: Warning %f25 was declared previous at _1.ptx:200 skipping new declaration
GPGPU-Sim PTX: Warning %f26 was declared previous at _1.ptx:200 skipping new declaration
GPGPU-Sim PTX: Warning %f27 was declared previous at _1.ptx:200 skipping new declaration
GPGPU-Sim PTX: Warning %f28 was declared previous at _1.ptx:200 skipping new declaration
GPGPU-Sim PTX: Warning %f29 was declared previous at _1.ptx:200 skipping new declaration
GPGPU-Sim PTX: Warning %f30 was declared previous at _1.ptx:200 skipping new declaration
GPGPU-Sim PTX: Warning %f31 was declared previous at _1.ptx:200 skipping new declaration
GPGPU-Sim PTX: Warning %f32 was declared previous at _1.ptx:200 skipping new declaration
GPGPU-Sim PTX: Warning %f33 was declared previous at _1.ptx:200 skipping new declaration
GPGPU-Sim PTX: Warning %f34 was declared previous at _1.ptx:200 skipping new declaration
GPGPU-Sim PTX: Warning %f35 was declared previous at _1.ptx:200 skipping new declaration
GPGPU-Sim PTX: Warning %f36 was declared previous at _1.ptx:200 skipping new declaration
GPGPU-Sim PTX: Warning %f37 was declared previous at _1.ptx:200 skipping new declaration
GPGPU-Sim PTX: Warning %f38 was declared previous at _1.ptx:200 skipping new declaration
GPGPU-Sim PTX: Warning %f39 was declared previous at _1.ptx:200 skipping new declaration
GPGPU-Sim PTX: Warning %f40 was declared previous at _1.ptx:200 skipping new declaration
GPGPU-Sim PTX: Warning %f41 was declared previous at _1.ptx:200 skipping new declaration
GPGPU-Sim PTX: Warning %f42 was declared previous at _1.ptx:200 skipping new declaration
GPGPU-Sim PTX: Warning %f43 was declared previous at _1.ptx:200 skipping new declaration
GPGPU-Sim PTX: Warning %f44 was declared previous at _1.ptx:200 skipping new declaration
GPGPU-Sim PTX: Warning %f45 was declared previous at _1.ptx:200 skipping new declaration
GPGPU-Sim PTX: Warning %f46 was declared previous at _1.ptx:200 skipping new declaration
GPGPU-Sim PTX: Warning %f47 was declared previous at _1.ptx:200 skipping new declaration
GPGPU-Sim PTX: Warning %f48 was declared previous at _1.ptx:200 skipping new declaration
GPGPU-Sim PTX: Warning %f49 was declared previous at _1.ptx:200 skipping new declaration
GPGPU-Sim PTX: Warning %f50 was declared previous at _1.ptx:200 skipping new declaration
GPGPU-Sim PTX: Warning %f51 was declared previous at _1.ptx:200 skipping new declaration
GPGPU-Sim PTX: Warning %f52 was declared previous at _1.ptx:200 skipping new declaration
GPGPU-Sim PTX: Warning %f53 was declared previous at _1.ptx:200 skipping new declaration
GPGPU-Sim PTX: Warning %f54 was declared previous at _1.ptx:200 skipping new declaration
GPGPU-Sim PTX: Warning %f55 was declared previous at _1.ptx:200 skipping new declaration
GPGPU-Sim PTX: Warning %f56 was declared previous at _1.ptx:200 skipping new declaration
GPGPU-Sim PTX: Warning %f57 was declared previous at _1.ptx:200 skipping new declaration
GPGPU-Sim PTX: Warning %f58 was declared previous at _1.ptx:200 skipping new declaration
GPGPU-Sim PTX: Warning %f59 was declared previous at _1.ptx:200 skipping new declaration
GPGPU-Sim PTX: Warning %f60 was declared previous at _1.ptx:200 skipping new declaration
GPGPU-Sim PTX: Warning %f61 was declared previous at _1.ptx:200 skipping new declaration
GPGPU-Sim PTX: Warning %f62 was declared previous at _1.ptx:200 skipping new declaration
GPGPU-Sim PTX: Warning %f63 was declared previous at _1.ptx:200 skipping new declaration
GPGPU-Sim PTX: Warning %f64 was declared previous at _1.ptx:200 skipping new declaration
GPGPU-Sim PTX: Warning %f65 was declared previous at _1.ptx:200 skipping new declaration
GPGPU-Sim PTX: Warning %f66 was declared previous at _1.ptx:200 skipping new declaration
GPGPU-Sim PTX: Warning %f67 was declared previous at _1.ptx:200 skipping new declaration
GPGPU-Sim PTX: Warning %f68 was declared previous at _1.ptx:200 skipping new declaration
GPGPU-Sim PTX: Warning %f69 was declared previous at _1.ptx:200 skipping new declaration
GPGPU-Sim PTX: instruction assembly for function '_Z15CUDAkernel1IDCTPfiii'...   done.
GPGPU-Sim PTX: Warning C_a was declared previous at _1.ptx:327 skipping new declaration
GPGPU-Sim PTX: Warning C_b was declared previous at _1.ptx:328 skipping new declaration
GPGPU-Sim PTX: Warning C_c was declared previous at _1.ptx:329 skipping new declaration
GPGPU-Sim PTX: Warning C_d was declared previous at _1.ptx:330 skipping new declaration
GPGPU-Sim PTX: Warning C_e was declared previous at _1.ptx:331 skipping new declaration
GPGPU-Sim PTX: Warning C_f was declared previous at _1.ptx:332 skipping new declaration
GPGPU-Sim PTX: Warning C_norm was declared previous at _1.ptx:333 skipping new declaration
GPGPU-Sim PTX: Warning %r0 was declared previous at _1.ptx:339 skipping new declaration
GPGPU-Sim PTX: Warning %r1 was declared previous at _1.ptx:339 skipping new declaration
GPGPU-Sim PTX: Warning %r2 was declared previous at _1.ptx:339 skipping new declaration
GPGPU-Sim PTX: Warning %r3 was declared previous at _1.ptx:339 skipping new declaration
GPGPU-Sim PTX: Warning %r4 was declared previous at _1.ptx:339 skipping new declaration
GPGPU-Sim PTX: Warning %r5 was declared previous at _1.ptx:339 skipping new declaration
GPGPU-Sim PTX: Warning %r6 was declared previous at _1.ptx:339 skipping new declaration
GPGPU-Sim PTX: Warning %r7 was declared previous at _1.ptx:339 skipping new declaration
GPGPU-Sim PTX: Warning %r8 was declared previous at _1.ptx:339 skipping new declaration
GPGPU-Sim PTX: Warning %r9 was declared previous at _1.ptx:339 skipping new declaration
GPGPU-Sim PTX: Warning %r10 was declared previous at _1.ptx:339 skipping new declaration
GPGPU-Sim PTX: Warning %r11 was declared previous at _1.ptx:339 skipping new declaration
GPGPU-Sim PTX: Warning %r12 was declared previous at _1.ptx:339 skipping new declaration
GPGPU-Sim PTX: Warning %r13 was declared previous at _1.ptx:339 skipping new declaration
GPGPU-Sim PTX: Warning %r14 was declared previous at _1.ptx:339 skipping new declaration
GPGPU-Sim PTX: Warning %r15 was declared previous at _1.ptx:339 skipping new declaration
GPGPU-Sim PTX: Warning %r16 was declared previous at _1.ptx:339 skipping new declaration
GPGPU-Sim PTX: Warning %r17 was declared previous at _1.ptx:339 skipping new declaration
GPGPU-Sim PTX: Warning %r18 was declared previous at _1.ptx:339 skipping new declaration
GPGPU-Sim PTX: Warning %r19 was declared previous at _1.ptx:339 skipping new declaration
GPGPU-Sim PTX: Warning %r20 was declared previous at _1.ptx:339 skipping new declaration
GPGPU-Sim PTX: Warning %r21 was declared previous at _1.ptx:339 skipping new declaration
GPGPU-Sim PTX: Warning %r22 was declared previous at _1.ptx:339 skipping new declaration
GPGPU-Sim PTX: Warning %r23 was declared previous at _1.ptx:339 skipping new declaration
GPGPU-Sim PTX: Warning %r24 was declared previous at _1.ptx:339 skipping new declaration
GPGPU-Sim PTX: Warning %rd0 was declared previous at _1.ptx:340 skipping new declaration
GPGPU-Sim PTX: Warning %rd1 was declared previous at _1.ptx:340 skipping new declaration
GPGPU-Sim PTX: Warning %rd2 was declared previous at _1.ptx:340 skipping new declaration
GPGPU-Sim PTX: Warning %rd3 was declared previous at _1.ptx:340 skipping new declaration
GPGPU-Sim PTX: Warning %rd4 was declared previous at _1.ptx:340 skipping new declaration
GPGPU-Sim PTX: Warning %rd5 was declared previous at _1.ptx:340 skipping new declaration
GPGPU-Sim PTX: Warning %rd6 was declared previous at _1.ptx:340 skipping new declaration
GPGPU-Sim PTX: Warning %rd7 was declared previous at _1.ptx:340 skipping new declaration
GPGPU-Sim PTX: Warning %rd8 was declared previous at _1.ptx:340 skipping new declaration
GPGPU-Sim PTX: Warning %rd9 was declared previous at _1.ptx:340 skipping new declaration
GPGPU-Sim PTX: Warning %rd10 was declared previous at _1.ptx:340 skipping new declaration
GPGPU-Sim PTX: Warning %rd11 was declared previous at _1.ptx:340 skipping new declaration
GPGPU-Sim PTX: Warning %rd12 was declared previous at _1.ptx:340 skipping new declaration
GPGPU-Sim PTX: Warning %rd13 was declared previous at _1.ptx:340 skipping new declaration
GPGPU-Sim PTX: Warning %rd14 was declared previous at _1.ptx:340 skipping new declaration
GPGPU-Sim PTX: Warning %rd15 was declared previous at _1.ptx:340 skipping new declaration
GPGPU-Sim PTX: Warning %rd16 was declared previous at _1.ptx:340 skipping new declaration
GPGPU-Sim PTX: Warning %rd17 was declared previous at _1.ptx:340 skipping new declaration
GPGPU-Sim PTX: Warning %rd18 was declared previous at _1.ptx:340 skipping new declaration
GPGPU-Sim PTX: Warning %rd19 was declared previous at _1.ptx:340 skipping new declaration
GPGPU-Sim PTX: Warning %rd20 was declared previous at _1.ptx:340 skipping new declaration
GPGPU-Sim PTX: Warning %rd21 was declared previous at _1.ptx:340 skipping new declaration
GPGPU-Sim PTX: Warning %rd22 was declared previous at _1.ptx:340 skipping new declaration
GPGPU-Sim PTX: Warning %rd23 was declared previous at _1.ptx:340 skipping new declaration
GPGPU-Sim PTX: Warning %rd24 was declared previous at _1.ptx:340 skipping new declaration
GPGPU-Sim PTX: Warning %rd25 was declared previous at _1.ptx:340 skipping new declaration
GPGPU-Sim PTX: Warning %rd26 was declared previous at _1.ptx:340 skipping new declaration
GPGPU-Sim PTX: Warning %rd27 was declared previous at _1.ptx:340 skipping new declaration
GPGPU-Sim PTX: Warning %rd28 was declared previous at _1.ptx:340 skipping new declaration
GPGPU-Sim PTX: Warning %rd29 was declared previous at _1.ptx:340 skipping new declaration
GPGPU-Sim PTX: Warning %rd30 was declared previous at _1.ptx:340 skipping new declaration
GPGPU-Sim PTX: Warning %rd31 was declared previous at _1.ptx:340 skipping new declaration
GPGPU-Sim PTX: Warning %rd32 was declared previous at _1.ptx:340 skipping new declaration
GPGPU-Sim PTX: Warning %rd33 was declared previous at _1.ptx:340 skipping new declaration
GPGPU-Sim PTX: Warning %rd34 was declared previous at _1.ptx:340 skipping new declaration
GPGPU-Sim PTX: Warning %rd35 was declared previous at _1.ptx:340 skipping new declaration
GPGPU-Sim PTX: Warning %rd36 was declared previous at _1.ptx:340 skipping new declaration
GPGPU-Sim PTX: Warning %rd37 was declared previous at _1.ptx:340 skipping new declaration
GPGPU-Sim PTX: Warning %rd38 was declared previous at _1.ptx:340 skipping new declaration
GPGPU-Sim PTX: Warning %rd39 was declared previous at _1.ptx:340 skipping new declaration
GPGPU-Sim PTX: Warning %f0 was declared previous at _1.ptx:341 skipping new declaration
GPGPU-Sim PTX: Warning %f1 was declared previous at _1.ptx:341 skipping new declaration
GPGPU-Sim PTX: Warning %f2 was declared previous at _1.ptx:341 skipping new declaration
GPGPU-Sim PTX: Warning %f3 was declared previous at _1.ptx:341 skipping new declaration
GPGPU-Sim PTX: Warning %f4 was declared previous at _1.ptx:341 skipping new declaration
GPGPU-Sim PTX: Warning %f5 was declared previous at _1.ptx:341 skipping new declaration
GPGPU-Sim PTX: Warning %f6 was declared previous at _1.ptx:341 skipping new declaration
GPGPU-Sim PTX: Warning %f7 was declared previous at _1.ptx:341 skipping new declaration
GPGPU-Sim PTX: Warning %f8 was declared previous at _1.ptx:341 skipping new declaration
GPGPU-Sim PTX: Warning %f9 was declared previous at _1.ptx:341 skipping new declaration
GPGPU-Sim PTX: Warning %f10 was declared previous at _1.ptx:341 skipping new declaration
GPGPU-Sim PTX: Warning %f11 was declared previous at _1.ptx:341 skipping new declaration
GPGPU-Sim PTX: Warning %f12 was declared previous at _1.ptx:341 skipping new declaration
GPGPU-Sim PTX: Warning %f13 was declared previous at _1.ptx:341 skipping new declaration
GPGPU-Sim PTX: Warning %f14 was declared previous at _1.ptx:341 skipping new declaration
GPGPU-Sim PTX: Warning %f15 was declared previous at _1.ptx:341 skipping new declaration
GPGPU-Sim PTX: Warning %f16 was declared previous at _1.ptx:341 skipping new declaration
GPGPU-Sim PTX: Warning %f17 was declared previous at _1.ptx:341 skipping new declaration
GPGPU-Sim PTX: Warning %f18 was declared previous at _1.ptx:341 skipping new declaration
GPGPU-Sim PTX: Warning %f19 was declared previous at _1.ptx:341 skipping new declaration
GPGPU-Sim PTX: Warning %f20 was declared previous at _1.ptx:341 skipping new declaration
GPGPU-Sim PTX: Warning %f21 was declared previous at _1.ptx:341 skipping new declaration
GPGPU-Sim PTX: Warning %f22 was declared previous at _1.ptx:341 skipping new declaration
GPGPU-Sim PTX: Warning %f23 was declared previous at _1.ptx:341 skipping new declaration
GPGPU-Sim PTX: Warning %f24 was declared previous at _1.ptx:341 skipping new declaration
GPGPU-Sim PTX: Warning %f25 was declared previous at _1.ptx:341 skipping new declaration
GPGPU-Sim PTX: Warning %f26 was declared previous at _1.ptx:341 skipping new declaration
GPGPU-Sim PTX: Warning %f27 was declared previous at _1.ptx:341 skipping new declaration
GPGPU-Sim PTX: Warning %f28 was declared previous at _1.ptx:341 skipping new declaration
GPGPU-Sim PTX: Warning %f29 was declared previous at _1.ptx:341 skipping new declaration
GPGPU-Sim PTX: Warning %f30 was declared previous at _1.ptx:341 skipping new declaration
GPGPU-Sim PTX: Warning %f31 was declared previous at _1.ptx:341 skipping new declaration
GPGPU-Sim PTX: Warning %f32 was declared previous at _1.ptx:341 skipping new declaration
GPGPU-Sim PTX: Warning %f33 was declared previous at _1.ptx:341 skipping new declaration
GPGPU-Sim PTX: Warning %f34 was declared previous at _1.ptx:341 skipping new declaration
GPGPU-Sim PTX: Warning %f35 was declared previous at _1.ptx:341 skipping new declaration
GPGPU-Sim PTX: Warning %f36 was declared previous at _1.ptx:341 skipping new declaration
GPGPU-Sim PTX: Warning %f37 was declared previous at _1.ptx:341 skipping new declaration
GPGPU-Sim PTX: Warning %f38 was declared previous at _1.ptx:341 skipping new declaration
GPGPU-Sim PTX: Warning %f39 was declared previous at _1.ptx:341 skipping new declaration
GPGPU-Sim PTX: Warning %f40 was declared previous at _1.ptx:341 skipping new declaration
GPGPU-Sim PTX: Warning %f41 was declared previous at _1.ptx:341 skipping new declaration
GPGPU-Sim PTX: Warning %f42 was declared previous at _1.ptx:341 skipping new declaration
GPGPU-Sim PTX: Warning %f43 was declared previous at _1.ptx:341 skipping new declaration
GPGPU-Sim PTX: Warning %f44 was declared previous at _1.ptx:341 skipping new declaration
GPGPU-Sim PTX: Warning %f45 was declared previous at _1.ptx:341 skipping new declaration
GPGPU-Sim PTX: Warning %f46 was declared previous at _1.ptx:341 skipping new declaration
GPGPU-Sim PTX: Warning %f47 was declared previous at _1.ptx:341 skipping new declaration
GPGPU-Sim PTX: Warning %f48 was declared previous at _1.ptx:341 skipping new declaration
GPGPU-Sim PTX: Warning %f49 was declared previous at _1.ptx:341 skipping new declaration
GPGPU-Sim PTX: Warning %f50 was declared previous at _1.ptx:341 skipping new declaration
GPGPU-Sim PTX: Warning %f51 was declared previous at _1.ptx:341 skipping new declaration
GPGPU-Sim PTX: Warning %f52 was declared previous at _1.ptx:341 skipping new declaration
GPGPU-Sim PTX: Warning %f53 was declared previous at _1.ptx:341 skipping new declaration
GPGPU-Sim PTX: Warning %f54 was declared previous at _1.ptx:341 skipping new declaration
GPGPU-Sim PTX: Warning %f55 was declared previous at _1.ptx:341 skipping new declaration
GPGPU-Sim PTX: Warning %f56 was declared previous at _1.ptx:341 skipping new declaration
GPGPU-Sim PTX: Warning %f57 was declared previous at _1.ptx:341 skipping new declaration
GPGPU-Sim PTX: Warning %f58 was declared previous at _1.ptx:341 skipping new declaration
GPGPU-Sim PTX: Warning %f59 was declared previous at _1.ptx:341 skipping new declaration
GPGPU-Sim PTX: Warning %f60 was declared previous at _1.ptx:341 skipping new declaration
GPGPU-Sim PTX: Warning %f61 was declared previous at _1.ptx:341 skipping new declaration
GPGPU-Sim PTX: Warning %f62 was declared previous at _1.ptx:341 skipping new declaration
GPGPU-Sim PTX: Warning %f63 was declared previous at _1.ptx:341 skipping new declaration
GPGPU-Sim PTX: Warning %f64 was declared previous at _1.ptx:341 skipping new declaration
GPGPU-Sim PTX: Warning %f65 was declared previous at _1.ptx:341 skipping new declaration
GPGPU-Sim PTX: Warning %f66 was declared previous at _1.ptx:341 skipping new declaration
GPGPU-Sim PTX: Warning %f67 was declared previous at _1.ptx:341 skipping new declaration
GPGPU-Sim PTX: Warning %f68 was declared previous at _1.ptx:341 skipping new declaration
GPGPU-Sim PTX: Warning %f69 was declared previous at _1.ptx:341 skipping new declaration
GPGPU-Sim PTX: Warning %f70 was declared previous at _1.ptx:341 skipping new declaration
GPGPU-Sim PTX: Warning %f71 was declared previous at _1.ptx:341 skipping new declaration
GPGPU-Sim PTX: Warning %f72 was declared previous at _1.ptx:341 skipping new declaration
GPGPU-Sim PTX: Warning %f73 was declared previous at _1.ptx:341 skipping new declaration
GPGPU-Sim PTX: Warning %f74 was declared previous at _1.ptx:341 skipping new declaration
GPGPU-Sim PTX: Warning %f75 was declared previous at _1.ptx:341 skipping new declaration
GPGPU-Sim PTX: Warning %f76 was declared previous at _1.ptx:341 skipping new declaration
GPGPU-Sim PTX: Warning %f77 was declared previous at _1.ptx:341 skipping new declaration
GPGPU-Sim PTX: Warning %f78 was declared previous at _1.ptx:341 skipping new declaration
GPGPU-Sim PTX: Warning %f79 was declared previous at _1.ptx:341 skipping new declaration
GPGPU-Sim PTX: Warning %f80 was declared previous at _1.ptx:341 skipping new declaration
GPGPU-Sim PTX: Warning %f81 was declared previous at _1.ptx:341 skipping new declaration
GPGPU-Sim PTX: Warning %f82 was declared previous at _1.ptx:341 skipping new declaration
GPGPU-Sim PTX: Warning %f83 was declared previous at _1.ptx:341 skipping new declaration
GPGPU-Sim PTX: Warning %f84 was declared previous at _1.ptx:341 skipping new declaration
GPGPU-Sim PTX: Warning %f85 was declared previous at _1.ptx:341 skipping new declaration
GPGPU-Sim PTX: Warning %f86 was declared previous at _1.ptx:341 skipping new declaration
GPGPU-Sim PTX: Warning %f87 was declared previous at _1.ptx:341 skipping new declaration
GPGPU-Sim PTX: Warning %f88 was declared previous at _1.ptx:341 skipping new declaration
GPGPU-Sim PTX: Warning %f89 was declared previous at _1.ptx:341 skipping new declaration
GPGPU-Sim PTX: Warning %f90 was declared previous at _1.ptx:341 skipping new declaration
GPGPU-Sim PTX: Warning %f91 was declared previous at _1.ptx:341 skipping new declaration
GPGPU-Sim PTX: Warning %f92 was declared previous at _1.ptx:341 skipping new declaration
GPGPU-Sim PTX: Warning %f93 was declared previous at _1.ptx:341 skipping new declaration
GPGPU-Sim PTX: Warning %f94 was declared previous at _1.ptx:341 skipping new declaration
GPGPU-Sim PTX: Warning %f95 was declared previous at _1.ptx:341 skipping new declaration
GPGPU-Sim PTX: Warning %f96 was declared previous at _1.ptx:341 skipping new declaration
GPGPU-Sim PTX: Warning %f97 was declared previous at _1.ptx:341 skipping new declaration
GPGPU-Sim PTX: Warning %f98 was declared previous at _1.ptx:341 skipping new declaration
GPGPU-Sim PTX: Warning %f99 was declared previous at _1.ptx:341 skipping new declaration
GPGPU-Sim PTX: Warning %f100 was declared previous at _1.ptx:341 skipping new declaration
GPGPU-Sim PTX: Warning %f101 was declared previous at _1.ptx:341 skipping new declaration
GPGPU-Sim PTX: Warning %f102 was declared previous at _1.ptx:341 skipping new declaration
GPGPU-Sim PTX: Warning %f103 was declared previous at _1.ptx:341 skipping new declaration
GPGPU-Sim PTX: Warning %f104 was declared previous at _1.ptx:341 skipping new declaration
GPGPU-Sim PTX: Warning %f105 was declared previous at _1.ptx:341 skipping new declaration
GPGPU-Sim PTX: Warning %f106 was declared previous at _1.ptx:341 skipping new declaration
GPGPU-Sim PTX: Warning %f107 was declared previous at _1.ptx:341 skipping new declaration
GPGPU-Sim PTX: Warning %f108 was declared previous at _1.ptx:341 skipping new declaration
GPGPU-Sim PTX: Warning %f109 was declared previous at _1.ptx:341 skipping new declaration
GPGPU-Sim PTX: Warning %f110 was declared previous at _1.ptx:341 skipping new declaration
GPGPU-Sim PTX: Warning %f111 was declared previous at _1.ptx:341 skipping new declaration
GPGPU-Sim PTX: Warning %f112 was declared previous at _1.ptx:341 skipping new declaration
GPGPU-Sim PTX: Warning %f113 was declared previous at _1.ptx:341 skipping new declaration
GPGPU-Sim PTX: Warning %f114 was declared previous at _1.ptx:341 skipping new declaration
GPGPU-Sim PTX: Warning %f115 was declared previous at _1.ptx:341 skipping new declaration
GPGPU-Sim PTX: Warning %f116 was declared previous at _1.ptx:341 skipping new declaration
GPGPU-Sim PTX: Warning %f117 was declared previous at _1.ptx:341 skipping new declaration
GPGPU-Sim PTX: Warning %f118 was declared previous at _1.ptx:341 skipping new declaration
GPGPU-Sim PTX: Warning %f119 was declared previous at _1.ptx:341 skipping new declaration
GPGPU-Sim PTX: Warning %f120 was declared previous at _1.ptx:341 skipping new declaration
GPGPU-Sim PTX: Warning %f121 was declared previous at _1.ptx:341 skipping new declaration
GPGPU-Sim PTX: Warning %f122 was declared previous at _1.ptx:341 skipping new declaration
GPGPU-Sim PTX: Warning %f123 was declared previous at _1.ptx:341 skipping new declaration
GPGPU-Sim PTX: Warning %f124 was declared previous at _1.ptx:341 skipping new declaration
GPGPU-Sim PTX: Warning %f125 was declared previous at _1.ptx:341 skipping new declaration
GPGPU-Sim PTX: Warning %f126 was declared previous at _1.ptx:341 skipping new declaration
GPGPU-Sim PTX: Warning %f127 was declared previous at _1.ptx:341 skipping new declaration
GPGPU-Sim PTX: Warning %f128 was declared previous at _1.ptx:341 skipping new declaration
GPGPU-Sim PTX: Warning %f129 was declared previous at _1.ptx:341 skipping new declaration
GPGPU-Sim PTX: Warning %f130 was declared previous at _1.ptx:341 skipping new declaration
GPGPU-Sim PTX: Warning %f131 was declared previous at _1.ptx:341 skipping new declaration
GPGPU-Sim PTX: Warning %f132 was declared previous at _1.ptx:341 skipping new declaration
GPGPU-Sim PTX: Warning %f133 was declared previous at _1.ptx:341 skipping new declaration
GPGPU-Sim PTX: Warning %f134 was declared previous at _1.ptx:341 skipping new declaration
GPGPU-Sim PTX: Warning __cuda___cuda_local_var_37942_32_non_const_block572 was declared previous at _1.ptx:342 skipping new declaration
GPGPU-Sim PTX: instruction assembly for function '_Z14CUDAkernel2DCTPfi'...   done.
GPGPU-Sim PTX: Warning %r0 was declared previous at _1.ptx:640 skipping new declaration
GPGPU-Sim PTX: Warning %r1 was declared previous at _1.ptx:640 skipping new declaration
GPGPU-Sim PTX: Warning %r2 was declared previous at _1.ptx:640 skipping new declaration
GPGPU-Sim PTX: Warning %r3 was declared previous at _1.ptx:640 skipping new declaration
GPGPU-Sim PTX: Warning %r4 was declared previous at _1.ptx:640 skipping new declaration
GPGPU-Sim PTX: Warning %r5 was declared previous at _1.ptx:640 skipping new declaration
GPGPU-Sim PTX: Warning %r6 was declared previous at _1.ptx:640 skipping new declaration
GPGPU-Sim PTX: Warning %r7 was declared previous at _1.ptx:640 skipping new declaration
GPGPU-Sim PTX: Warning %r8 was declared previous at _1.ptx:640 skipping new declaration
GPGPU-Sim PTX: Warning %r9 was declared previous at _1.ptx:640 skipping new declaration
GPGPU-Sim PTX: Warning %r10 was declared previous at _1.ptx:640 skipping new declaration
GPGPU-Sim PTX: Warning %r11 was declared previous at _1.ptx:640 skipping new declaration
GPGPU-Sim PTX: Warning %r12 was declared previous at _1.ptx:640 skipping new declaration
GPGPU-Sim PTX: Warning %r13 was declared previous at _1.ptx:640 skipping new declaration
GPGPU-Sim PTX: Warning %r14 was declared previous at _1.ptx:640 skipping new declaration
GPGPU-Sim PTX: Warning %r15 was declared previous at _1.ptx:640 skipping new declaration
GPGPU-Sim PTX: Warning %r16 was declared previous at _1.ptx:640 skipping new declaration
GPGPU-Sim PTX: Warning %r17 was declared previous at _1.ptx:640 skipping new declaration
GPGPU-Sim PTX: Warning %r18 was declared previous at _1.ptx:640 skipping new declaration
GPGPU-Sim PTX: Warning %r19 was declared previous at _1.ptx:640 skipping new declaration
GPGPU-Sim PTX: Warning %r20 was declared previous at _1.ptx:640 skipping new declaration
GPGPU-Sim PTX: Warning %r21 was declared previous at _1.ptx:640 skipping new declaration
GPGPU-Sim PTX: Warning %r22 was declared previous at _1.ptx:640 skipping new declaration
GPGPU-Sim PTX: Warning %r23 was declared previous at _1.ptx:640 skipping new declaration
GPGPU-Sim PTX: Warning %r24 was declared previous at _1.ptx:640 skipping new declaration
GPGPU-Sim PTX: Warning %rd0 was declared previous at _1.ptx:641 skipping new declaration
GPGPU-Sim PTX: Warning %rd1 was declared previous at _1.ptx:641 skipping new declaration
GPGPU-Sim PTX: Warning %rd2 was declared previous at _1.ptx:641 skipping new declaration
GPGPU-Sim PTX: Warning %rd3 was declared previous at _1.ptx:641 skipping new declaration
GPGPU-Sim PTX: Warning %rd4 was declared previous at _1.ptx:641 skipping new declaration
GPGPU-Sim PTX: Warning %rd5 was declared previous at _1.ptx:641 skipping new declaration
GPGPU-Sim PTX: Warning %rd6 was declared previous at _1.ptx:641 skipping new declaration
GPGPU-Sim PTX: Warning %rd7 was declared previous at _1.ptx:641 skipping new declaration
GPGPU-Sim PTX: Warning %rd8 was declared previous at _1.ptx:641 skipping new declaration
GPGPU-Sim PTX: Warning %rd9 was declared previous at _1.ptx:641 skipping new declaration
GPGPU-Sim PTX: Warning %rd10 was declared previous at _1.ptx:641 skipping new declaration
GPGPU-Sim PTX: Warning %rd11 was declared previous at _1.ptx:641 skipping new declaration
GPGPU-Sim PTX: Warning %rd12 was declared previous at _1.ptx:641 skipping new declaration
GPGPU-Sim PTX: Warning %rd13 was declared previous at _1.ptx:641 skipping new declaration
GPGPU-Sim PTX: Warning %rd14 was declared previous at _1.ptx:641 skipping new declaration
GPGPU-Sim PTX: Warning %rd15 was declared previous at _1.ptx:641 skipping new declaration
GPGPU-Sim PTX: Warning %rd16 was declared previous at _1.ptx:641 skipping new declaration
GPGPU-Sim PTX: Warning %rd17 was declared previous at _1.ptx:641 skipping new declaration
GPGPU-Sim PTX: Warning %rd18 was declared previous at _1.ptx:641 skipping new declaration
GPGPU-Sim PTX: Warning %rd19 was declared previous at _1.ptx:641 skipping new declaration
GPGPU-Sim PTX: Warning %rd20 was declared previous at _1.ptx:641 skipping new declaration
GPGPU-Sim PTX: Warning %rd21 was declared previous at _1.ptx:641 skipping new declaration
GPGPU-Sim PTX: Warning %rd22 was declared previous at _1.ptx:641 skipping new declaration
GPGPU-Sim PTX: Warning %rd23 was declared previous at _1.ptx:641 skipping new declaration
GPGPU-Sim PTX: Warning %rd24 was declared previous at _1.ptx:641 skipping new declaration
GPGPU-Sim PTX: Warning %rd25 was declared previous at _1.ptx:641 skipping new declaration
GPGPU-Sim PTX: Warning %rd26 was declared previous at _1.ptx:641 skipping new declaration
GPGPU-Sim PTX: Warning %rd27 was declared previous at _1.ptx:641 skipping new declaration
GPGPU-Sim PTX: Warning %rd28 was declared previous at _1.ptx:641 skipping new declaration
GPGPU-Sim PTX: Warning %rd29 was declared previous at _1.ptx:641 skipping new declaration
GPGPU-Sim PTX: Warning %rd30 was declared previous at _1.ptx:641 skipping new declaration
GPGPU-Sim PTX: Warning %rd31 was declared previous at _1.ptx:641 skipping new declaration
GPGPU-Sim PTX: Warning %rd32 was declared previous at _1.ptx:641 skipping new declaration
GPGPU-Sim PTX: Warning %rd33 was declared previous at _1.ptx:641 skipping new declaration
GPGPU-Sim PTX: Warning %rd34 was declared previous at _1.ptx:641 skipping new declaration
GPGPU-Sim PTX: Warning %rd35 was declared previous at _1.ptx:641 skipping new declaration
GPGPU-Sim PTX: Warning %rd36 was declared previous at _1.ptx:641 skipping new declaration
GPGPU-Sim PTX: Warning %rd37 was declared previous at _1.ptx:641 skipping new declaration
GPGPU-Sim PTX: Warning %rd38 was declared previous at _1.ptx:641 skipping new declaration
GPGPU-Sim PTX: Warning %rd39 was declared previous at _1.ptx:641 skipping new declaration
GPGPU-Sim PTX: Warning %f0 was declared previous at _1.ptx:642 skipping new declaration
GPGPU-Sim PTX: Warning %f1 was declared previous at _1.ptx:642 skipping new declaration
GPGPU-Sim PTX: Warning %f2 was declared previous at _1.ptx:642 skipping new declaration
GPGPU-Sim PTX: Warning %f3 was declared previous at _1.ptx:642 skipping new declaration
GPGPU-Sim PTX: Warning %f4 was declared previous at _1.ptx:642 skipping new declaration
GPGPU-Sim PTX: Warning %f5 was declared previous at _1.ptx:642 skipping new declaration
GPGPU-Sim PTX: Warning %f6 was declared previous at _1.ptx:642 skipping new declaration
GPGPU-Sim PTX: Warning %f7 was declared previous at _1.ptx:642 skipping new declaration
GPGPU-Sim PTX: Warning %f8 was declared previous at _1.ptx:642 skipping new declaration
GPGPU-Sim PTX: Warning %f9 was declared previous at _1.ptx:642 skipping new declaration
GPGPU-Sim PTX: Warning %f10 was declared previous at _1.ptx:642 skipping new declaration
GPGPU-Sim PTX: Warning %f11 was declared previous at _1.ptx:642 skipping new declaration
GPGPU-Sim PTX: Warning %f12 was declared previous at _1.ptx:642 skipping new declaration
GPGPU-Sim PTX: Warning %f13 was declared previous at _1.ptx:642 skipping new declaration
GPGPU-Sim PTX: Warning %f14 was declared previous at _1.ptx:642 skipping new declaration
GPGPU-Sim PTX: Warning %f15 was declared previous at _1.ptx:642 skipping new declaration
GPGPU-Sim PTX: Warning %f16 was declared previous at _1.ptx:642 skipping new declaration
GPGPU-Sim PTX: Warning %f17 was declared previous at _1.ptx:642 skipping new declaration
GPGPU-Sim PTX: Warning %f18 was declared previous at _1.ptx:642 skipping new declaration
GPGPU-Sim PTX: Warning %f19 was declared previous at _1.ptx:642 skipping new declaration
GPGPU-Sim PTX: Warning %f20 was declared previous at _1.ptx:642 skipping new declaration
GPGPU-Sim PTX: Warning %f21 was declared previous at _1.ptx:642 skipping new declaration
GPGPU-Sim PTX: Warning %f22 was declared previous at _1.ptx:642 skipping new declaration
GPGPU-Sim PTX: Warning %f23 was declared previous at _1.ptx:642 skipping new declaration
GPGPU-Sim PTX: Warning %f24 was declared previous at _1.ptx:642 skipping new declaration
GPGPU-Sim PTX: Warning %f25 was declared previous at _1.ptx:642 skipping new declaration
GPGPU-Sim PTX: Warning %f26 was declared previous at _1.ptx:642 skipping new declaration
GPGPU-Sim PTX: Warning %f27 was declared previous at _1.ptx:642 skipping new declaration
GPGPU-Sim PTX: Warning %f28 was declared previous at _1.ptx:642 skipping new declaration
GPGPU-Sim PTX: Warning %f29 was declared previous at _1.ptx:642 skipping new declaration
GPGPU-Sim PTX: Warning %f30 was declared previous at _1.ptx:642 skipping new declaration
GPGPU-Sim PTX: Warning %f31 was declared previous at _1.ptx:642 skipping new declaration
GPGPU-Sim PTX: Warning %f32 was declared previous at _1.ptx:642 skipping new declaration
GPGPU-Sim PTX: Warning %f33 was declared previous at _1.ptx:642 skipping new declaration
GPGPU-Sim PTX: Warning %f34 was declared previous at _1.ptx:642 skipping new declaration
GPGPU-Sim PTX: Warning %f35 was declared previous at _1.ptx:642 skipping new declaration
GPGPU-Sim PTX: Warning %f36 was declared previous at _1.ptx:642 skipping new declaration
GPGPU-Sim PTX: Warning %f37 was declared previous at _1.ptx:642 skipping new declaration
GPGPU-Sim PTX: Warning %f38 was declared previous at _1.ptx:642 skipping new declaration
GPGPU-Sim PTX: Warning %f39 was declared previous at _1.ptx:642 skipping new declaration
GPGPU-Sim PTX: Warning %f40 was declared previous at _1.ptx:642 skipping new declaration
GPGPU-Sim PTX: Warning %f41 was declared previous at _1.ptx:642 skipping new declaration
GPGPU-Sim PTX: Warning %f42 was declared previous at _1.ptx:642 skipping new declaration
GPGPU-Sim PTX: Warning %f43 was declared previous at _1.ptx:642 skipping new declaration
GPGPU-Sim PTX: Warning %f44 was declared previous at _1.ptx:642 skipping new declaration
GPGPU-Sim PTX: Warning %f45 was declared previous at _1.ptx:642 skipping new declaration
GPGPU-Sim PTX: Warning %f46 was declared previous at _1.ptx:642 skipping new declaration
GPGPU-Sim PTX: Warning %f47 was declared previous at _1.ptx:642 skipping new declaration
GPGPU-Sim PTX: Warning %f48 was declared previous at _1.ptx:642 skipping new declaration
GPGPU-Sim PTX: Warning %f49 was declared previous at _1.ptx:642 skipping new declaration
GPGPU-Sim PTX: Warning %f50 was declared previous at _1.ptx:642 skipping new declaration
GPGPU-Sim PTX: Warning %f51 was declared previous at _1.ptx:642 skipping new declaration
[...]
Average # of Memory Banks Accessed per Memory Operation per Warp=-nan

position of mrq chosen
0	0	0	0	0	0	0	0	0	0	0	0	0	0	0	0	0	0	0	0	0	0	0	0	0	0	0	0	0	0	0	0	0	0	0	0	0	0	0	0	0	0	0	0	0	0	0	0	0	0	0	0	0	0	0	0	0	0	0	0	0	0	0	0	

average position of mrq chosen = -nan
Memory Partition 0: 
Cache L2_bank_000:
MSHR contents

Cache L2_bank_001:
MSHR contents

In Dram Latency Queue (total = 0): 
DRAM[0]: 16 bks, busW=4 BL=8 CL=12, tRRD=6 tCCD=2, tRCD=12 tRAS=28 tRP=12 tRC=40
n_cmd=78347 n_nop=63013 n_act=513 n_pre=497 n_ref_event=0 n_req=12646 n_rd=10938 n_rd_L2_A=0 n_write=0 n_wr_bk=3416 bw_util=0.3664
n_activity=49382 dram_eff=0.5813
bk0: 770a 72144i bk1: 776a 72329i bk2: 768a 71662i bk3: 768a 72095i bk4: 768a 72161i bk5: 768a 71773i bk6: 768a 71472i bk7: 768a 71805i bk8: 768a 71874i bk9: 768a 72866i bk10: 608a 74120i bk11: 592a 74673i bk12: 512a 75510i bk13: 512a 75628i bk14: 512a 75219i bk15: 512a 74893i 

------------------------------------------------------------------------

Row_Buffer_Locality = 0.960699
Row_Buffer_Locality_read = 0.978241
Row_Buffer_Locality_write = 0.848361
Bank_Level_Parallism = 2.103341
Bank_Level_Parallism_Col = 2.071478
Bank_Level_Parallism_Ready = 1.357520
write_to_read_ratio_blp_rw_average = 0.390410
GrpLevelPara = 1.513589 

BW Util details:
bwutil = 0.366421 
total_CMD = 78347 
util_bw = 28708 
Wasted_Col = 14029 
Wasted_Row = 3204 
Idle = 32406 

BW Util Bottlenecks: 
RCDc_limit = 1857 
RCDWRc_limit = 1004 
WTRc_limit = 2445 
RTWc_limit = 7746 
CCDLc_limit = 11267 
rwq = 0 
CCDLc_limit_alone = 7670 
WTRc_limit_alone = 1865 
RTWc_limit_alone = 4729 

Commands details: 
total_CMD = 78347 
n_nop = 63013 
Read = 10938 
Write = 0 
L2_Alloc = 0 
L2_WB = 3416 
n_act = 513 
n_pre = 497 
n_ref = 0 
n_req = 12646 
total_req = 14354 

Dual Bus Interface Util: 
issued_total_row = 1010 
issued_total_col = 14354 
Row_Bus_Util =  0.012891 
CoL_Bus_Util = 0.183211 
Either_Row_CoL_Bus_Util = 0.195719 
Issued_on_Two_Bus_Simul_Util = 0.000383 
issued_two_Eff = 0.001956 
queue_avg = 5.007582 


dram_util_bins: 0 0 0 0 0 0 0 0 0 0
dram_eff_bins: 0 0 0 0 0 0 0 0 0 0
mrqq: max=64 avg=5.00758
Memory Partition 1: 
Cache L2_bank_002:
MSHR contents

Cache L2_bank_003:
MSHR contents

In Dram Latency Queue (total = 0): 
DRAM[1]: 16 bks, busW=4 BL=8 CL=12, tRRD=6 tCCD=2, tRCD=12 tRAS=28 tRP=12 tRC=40
n_cmd=78347 n_nop=63003 n_act=523 n_pre=507 n_ref_event=0 n_req=12644 n_rd=10936 n_rd_L2_A=0 n_write=0 n_wr_bk=3416 bw_util=0.3664
n_activity=48827 dram_eff=0.5879
bk0: 768a 71855i bk1: 776a 72234i bk2: 768a 72673i bk3: 768a 71646i bk4: 768a 71741i bk5: 768a 72111i bk6: 768a 71989i bk7: 768a 71700i bk8: 768a 72717i bk9: 768a 72354i bk10: 608a 74755i bk11: 592a 74813i bk12: 512a 75436i bk13: 512a 75224i bk14: 512a 75539i bk15: 512a 75047i 

------------------------------------------------------------------------

Row_Buffer_Locality = 0.959902
Row_Buffer_Locality_read = 0.977963
Row_Buffer_Locality_write = 0.844262
Bank_Level_Parallism = 2.077978
Bank_Level_Parallism_Col = 2.039678
Bank_Level_Parallism_Ready = 1.324399
write_to_read_ratio_blp_rw_average = 0.402764
GrpLevelPara = 1.524679 

BW Util details:
bwutil = 0.366370 
total_CMD = 78347 
util_bw = 28704 
Wasted_Col = 13871 
Wasted_Row = 3107 
Idle = 32665 

BW Util Bottlenecks: 
RCDc_limit = 1887 
RCDWRc_limit = 1013 
WTRc_limit = 2326 
RTWc_limit = 7820 
CCDLc_limit = 11181 
rwq = 0 
CCDLc_limit_alone = 7628 
WTRc_limit_alone = 1809 
RTWc_limit_alone = 4784 

Commands details: 
total_CMD = 78347 
n_nop = 63003 
Read = 10936 
Write = 0 
L2_Alloc = 0 
L2_WB = 3416 
n_act = 523 
n_pre = 507 
n_ref = 0 
n_req = 12644 
total_req = 14352 

Dual Bus Interface Util: 
issued_total_row = 1030 
issued_total_col = 14352 
Row_Bus_Util =  0.013147 
CoL_Bus_Util = 0.183185 
Either_Row_CoL_Bus_Util = 0.195847 
Issued_on_Two_Bus_Simul_Util = 0.000485 
issued_two_Eff = 0.002477 
queue_avg = 4.802379 


dram_util_bins: 0 0 0 0 0 0 0 0 0 0
dram_eff_bins: 0 0 0 0 0 0 0 0 0 0
mrqq: max=64 avg=4.80238
Memory Partition 2: 
Cache L2_bank_004:
MSHR contents

Cache L2_bank_005:
MSHR contents

In Dram Latency Queue (total = 0): 
DRAM[2]: 16 bks, busW=4 BL=8 CL=12, tRRD=6 tCCD=2, tRCD=12 tRAS=28 tRP=12 tRC=40
n_cmd=78347 n_nop=63007 n_act=516 n_pre=500 n_ref_event=0 n_req=12650 n_rd=10942 n_rd_L2_A=0 n_write=0 n_wr_bk=3416 bw_util=0.3665
n_activity=49227 dram_eff=0.5833
bk0: 774a 72580i bk1: 776a 72097i bk2: 768a 72687i bk3: 768a 71511i bk4: 768a 72546i bk5: 768a 72148i bk6: 768a 71907i bk7: 768a 71763i bk8: 768a 72840i bk9: 768a 71779i bk10: 608a 74158i bk11: 592a 74715i bk12: 512a 75344i bk13: 512a 75394i bk14: 512a 75349i bk15: 512a 75602i 

------------------------------------------------------------------------

Row_Buffer_Locality = 0.960474
Row_Buffer_Locality_read = 0.978340
Row_Buffer_Locality_write = 0.846019
Bank_Level_Parallism = 2.058040
Bank_Level_Parallism_Col = 2.022871
Bank_Level_Parallism_Ready = 1.319553
write_to_read_ratio_blp_rw_average = 0.392343
GrpLevelPara = 1.489795 

BW Util details:
bwutil = 0.366523 
total_CMD = 78347 
util_bw = 28716 
Wasted_Col = 14104 
Wasted_Row = 3092 
Idle = 32435 

BW Util Bottlenecks: 
RCDc_limit = 1818 
RCDWRc_limit = 1019 
WTRc_limit = 2421 
RTWc_limit = 7643 
CCDLc_limit = 11264 
rwq = 0 
CCDLc_limit_alone = 7811 
WTRc_limit_alone = 1809 
RTWc_limit_alone = 4802 

Commands details: 
total_CMD = 78347 
n_nop = 63007 
Read = 10942 
Write = 0 
L2_Alloc = 0 
L2_WB = 3416 
n_act = 516 
n_pre = 500 
n_ref = 0 
n_req = 12650 
total_req = 14358 

Dual Bus Interface Util: 
issued_total_row = 1016 
issued_total_col = 14358 
Row_Bus_Util =  0.012968 
CoL_Bus_Util = 0.183262 
Either_Row_CoL_Bus_Util = 0.195796 
Issued_on_Two_Bus_Simul_Util = 0.000434 
issued_two_Eff = 0.002216 
queue_avg = 4.969176 


dram_util_bins: 0 0 0 0 0 0 0 0 0 0
dram_eff_bins: 0 0 0 0 0 0 0 0 0 0
mrqq: max=64 avg=4.96918
Memory Partition 3: 
Cache L2_bank_006:
MSHR contents

Cache L2_bank_007:
MSHR contents

In Dram Latency Queue (total = 0): 
DRAM[3]: 16 bks, busW=4 BL=8 CL=12, tRRD=6 tCCD=2, tRCD=12 tRAS=28 tRP=12 tRC=40
n_cmd=78347 n_nop=63012 n_act=515 n_pre=499 n_ref_event=0 n_req=12644 n_rd=10936 n_rd_L2_A=0 n_write=0 n_wr_bk=3416 bw_util=0.3664
n_activity=48532 dram_eff=0.5914
bk0: 768a 72101i bk1: 776a 71486i bk2: 768a 72245i bk3: 768a 71977i bk4: 768a 72260i bk5: 768a 71933i bk6: 768a 72013i bk7: 768a 72100i bk8: 768a 72576i bk9: 768a 72353i bk10: 608a 74799i bk11: 592a 74972i bk12: 512a 75432i bk13: 512a 75292i bk14: 512a 75106i bk15: 512a 75490i 

------------------------------------------------------------------------

Row_Buffer_Locality = 0.960535
Row_Buffer_Locality_read = 0.978146
Row_Buffer_Locality_write = 0.847775
Bank_Level_Parallism = 2.085480
Bank_Level_Parallism_Col = 2.043082
Bank_Level_Parallism_Ready = 1.335324
write_to_read_ratio_blp_rw_average = 0.402346
GrpLevelPara = 1.525734 

BW Util details:
bwutil = 0.366370 
total_CMD = 78347 
util_bw = 28704 
Wasted_Col = 13710 
Wasted_Row = 3000 
Idle = 32933 

BW Util Bottlenecks: 
RCDc_limit = 1803 
RCDWRc_limit = 1002 
WTRc_limit = 2208 
RTWc_limit = 7659 
CCDLc_limit = 11072 
rwq = 0 
CCDLc_limit_alone = 7571 
WTRc_limit_alone = 1729 
RTWc_limit_alone = 4637 

Commands details: 
total_CMD = 78347 
n_nop = 63012 
Read = 10936 
Write = 0 
L2_Alloc = 0 
L2_WB = 3416 
n_act = 515 
n_pre = 499 
n_ref = 0 
n_req = 12644 
total_req = 14352 

Dual Bus Interface Util: 
issued_total_row = 1014 
issued_total_col = 14352 
Row_Bus_Util =  0.012942 
CoL_Bus_Util = 0.183185 
Either_Row_CoL_Bus_Util = 0.195732 
Issued_on_Two_Bus_Simul_Util = 0.000396 
issued_two_Eff = 0.002022 
queue_avg = 4.878553 


dram_util_bins: 0 0 0 0 0 0 0 0 0 0
dram_eff_bins: 0 0 0 0 0 0 0 0 0 0
mrqq: max=64 avg=4.87855
Memory Partition 4: 
Cache L2_bank_008:
MSHR contents

Cache L2_bank_009:
MSHR contents

In Dram Latency Queue (total = 0): 
DRAM[4]: 16 bks, busW=4 BL=8 CL=12, tRRD=6 tCCD=2, tRCD=12 tRAS=28 tRP=12 tRC=40
n_cmd=78347 n_nop=63031 n_act=508 n_pre=492 n_ref_event=0 n_req=12640 n_rd=10936 n_rd_L2_A=0 n_write=0 n_wr_bk=3408 bw_util=0.3662
n_activity=49124 dram_eff=0.584
bk0: 784a 72477i bk1: 776a 72185i bk2: 768a 72064i bk3: 768a 72298i bk4: 768a 72149i bk5: 768a 72081i bk6: 768a 72191i bk7: 768a 71713i bk8: 768a 72121i bk9: 768a 72312i bk10: 592a 74185i bk11: 592a 74655i bk12: 512a 75033i bk13: 512a 75572i bk14: 512a 75377i bk15: 512a 75457i 

------------------------------------------------------------------------

Row_Buffer_Locality = 0.960997
Row_Buffer_Locality_read = 0.978511
Row_Buffer_Locality_write = 0.848592
Bank_Level_Parallism = 2.070275
Bank_Level_Parallism_Col = 2.051222
Bank_Level_Parallism_Ready = 1.349566
write_to_read_ratio_blp_rw_average = 0.391980
GrpLevelPara = 1.505671 

BW Util details:
bwutil = 0.366166 
total_CMD = 78347 
util_bw = 28688 
Wasted_Col = 13805 
Wasted_Row = 3361 
Idle = 32493 

BW Util Bottlenecks: 
RCDc_limit = 1840 
RCDWRc_limit = 1050 
WTRc_limit = 2465 
RTWc_limit = 7177 
CCDLc_limit = 10868 
rwq = 0 
CCDLc_limit_alone = 7558 
WTRc_limit_alone = 1850 
RTWc_limit_alone = 4482 

Commands details: 
total_CMD = 78347 
n_nop = 63031 
Read = 10936 
Write = 0 
L2_Alloc = 0 
L2_WB = 3408 
n_act = 508 
n_pre = 492 
n_ref = 0 
n_req = 12640 
total_req = 14344 

Dual Bus Interface Util: 
issued_total_row = 1000 
issued_total_col = 14344 
Row_Bus_Util =  0.012764 
CoL_Bus_Util = 0.183083 
Either_Row_CoL_Bus_Util = 0.195489 
Issued_on_Two_Bus_Simul_Util = 0.000357 
issued_two_Eff = 0.001828 
queue_avg = 4.863096 


dram_util_bins: 0 0 0 0 0 0 0 0 0 0
dram_eff_bins: 0 0 0 0 0 0 0 0 0 0
mrqq: max=64 avg=4.8631
Memory Partition 5: 
Cache L2_bank_010:
MSHR contents

Cache L2_bank_011:
MSHR contents

In Dram Latency Queue (total = 0): 
DRAM[5]: 16 bks, busW=4 BL=8 CL=12, tRRD=6 tCCD=2, tRCD=12 tRAS=28 tRP=12 tRC=40
n_cmd=78347 n_nop=62975 n_act=538 n_pre=522 n_ref_event=0 n_req=12640 n_rd=10936 n_rd_L2_A=0 n_write=0 n_wr_bk=3408 bw_util=0.3662
n_activity=49088 dram_eff=0.5844
bk0: 784a 72109i bk1: 776a 71954i bk2: 768a 72186i bk3: 768a 72084i bk4: 768a 72034i bk5: 768a 72021i bk6: 768a 71903i bk7: 768a 71515i bk8: 768a 72007i bk9: 768a 72866i bk10: 592a 74768i bk11: 592a 74986i bk12: 512a 75326i bk13: 512a 75192i bk14: 512a 75093i bk15: 512a 75197i 

------------------------------------------------------------------------

Row_Buffer_Locality = 0.958623
Row_Buffer_Locality_read = 0.976865
Row_Buffer_Locality_write = 0.841549
Bank_Level_Parallism = 2.086199
Bank_Level_Parallism_Col = 2.048043
Bank_Level_Parallism_Ready = 1.356622
write_to_read_ratio_blp_rw_average = 0.386864
GrpLevelPara = 1.511289 

BW Util details:
bwutil = 0.366166 
total_CMD = 78347 
util_bw = 28688 
Wasted_Col = 13840 
Wasted_Row = 3275 
Idle = 32544 

BW Util Bottlenecks: 
RCDc_limit = 1879 
RCDWRc_limit = 1099 
WTRc_limit = 2454 
RTWc_limit = 7404 
CCDLc_limit = 11018 
rwq = 0 
CCDLc_limit_alone = 7719 
WTRc_limit_alone = 1901 
RTWc_limit_alone = 4658 

Commands details: 
total_CMD = 78347 
n_nop = 62975 
Read = 10936 
Write = 0 
L2_Alloc = 0 
L2_WB = 3408 
n_act = 538 
n_pre = 522 
n_ref = 0 
n_req = 12640 
total_req = 14344 

Dual Bus Interface Util: 
issued_total_row = 1060 
issued_total_col = 14344 
Row_Bus_Util =  0.013530 
CoL_Bus_Util = 0.183083 
Either_Row_CoL_Bus_Util = 0.196204 
Issued_on_Two_Bus_Simul_Util = 0.000408 
issued_two_Eff = 0.002082 
queue_avg = 5.134287 


dram_util_bins: 0 0 0 0 0 0 0 0 0 0
dram_eff_bins: 0 0 0 0 0 0 0 0 0 0
mrqq: max=64 avg=5.13429

========= L2 cache stats =========
L2_cache_bank[0]: Access = 18242, Miss = 5474, Miss_rate = 0.300, Pending_hits = 7058, Reservation_fails = 299
L2_cache_bank[1]: Access = 17980, Miss = 5464, Miss_rate = 0.304, Pending_hits = 6873, Reservation_fails = 296
L2_cache_bank[2]: Access = 18128, Miss = 5472, Miss_rate = 0.302, Pending_hits = 7092, Reservation_fails = 67
L2_cache_bank[3]: Access = 18164, Miss = 5464, Miss_rate = 0.301, Pending_hits = 7140, Reservation_fails = 272
L2_cache_bank[4]: Access = 18026, Miss = 5478, Miss_rate = 0.304, Pending_hits = 6916, Reservation_fails = 559
L2_cache_bank[5]: Access = 18296, Miss = 5464, Miss_rate = 0.299, Pending_hits = 7100, Reservation_fails = 296
L2_cache_bank[6]: Access = 18120, Miss = 5472, Miss_rate = 0.302, Pending_hits = 7160, Reservation_fails = 65
L2_cache_bank[7]: Access = 18208, Miss = 5464, Miss_rate = 0.300, Pending_hits = 7104, Reservation_fails = 272
L2_cache_bank[8]: Access = 18380, Miss = 5472, Miss_rate = 0.298, Pending_hits = 7044, Reservation_fails = 498
L2_cache_bank[9]: Access = 18020, Miss = 5464, Miss_rate = 0.303, Pending_hits = 6923, Reservation_fails = 288
L2_cache_bank[10]: Access = 18328, Miss = 5472, Miss_rate = 0.299, Pending_hits = 7123, Reservation_fails = 503
L2_cache_bank[11]: Access = 18132, Miss = 5464, Miss_rate = 0.301, Pending_hits = 7104, Reservation_fails = 267
L2_total_cache_accesses = 218024
L2_total_cache_misses = 65624
L2_total_cache_miss_rate = 0.3010
L2_total_cache_pending_hits = 84637
L2_total_cache_reservation_fails = 3682
L2_total_cache_breakdown:
	L2_cache_stats_breakdown[GLOBAL_ACC_R][HIT] = 1266
	L2_cache_stats_breakdown[GLOBAL_ACC_R][HIT_RESERVED] = 84366
	L2_cache_stats_breakdown[GLOBAL_ACC_R][MISS] = 16384
	L2_cache_stats_breakdown[GLOBAL_ACC_R][RESERVATION_FAIL] = 851
	L2_cache_stats_breakdown[GLOBAL_ACC_R][SECTOR_MISS] = 49152
	L2_cache_stats_breakdown[GLOBAL_ACC_R][MSHR_HIT] = 84366
	L2_cache_stats_breakdown[LOCAL_ACC_R][HIT] = 0
	L2_cache_stats_breakdown[LOCAL_ACC_R][HIT_RESERVED] = 0
	L2_cache_stats_breakdown[LOCAL_ACC_R][MISS] = 0
	L2_cache_stats_breakdown[LOCAL_ACC_R][RESERVATION_FAIL] = 0
	L2_cache_stats_breakdown[LOCAL_ACC_R][SECTOR_MISS] = 0
	L2_cache_stats_breakdown[LOCAL_ACC_R][MSHR_HIT] = 0
	L2_cache_stats_breakdown[CONST_ACC_R][HIT] = 81
	L2_cache_stats_breakdown[CONST_ACC_R][HIT_RESERVED] = 31
	L2_cache_stats_breakdown[CONST_ACC_R][MISS] = 3
	L2_cache_stats_breakdown[CONST_ACC_R][RESERVATION_FAIL] = 713
	L2_cache_stats_breakdown[CONST_ACC_R][SECTOR_MISS] = 5
	L2_cache_stats_breakdown[CONST_ACC_R][MSHR_HIT] = 31
	L2_cache_stats_breakdown[TEXTURE_ACC_R][HIT] = 0
	L2_cache_stats_breakdown[TEXTURE_ACC_R][HIT_RESERVED] = 0
	L2_cache_stats_breakdown[TEXTURE_ACC_R][MISS] = 0
	L2_cache_stats_breakdown[TEXTURE_ACC_R][RESERVATION_FAIL] = 0
	L2_cache_stats_breakdown[TEXTURE_ACC_R][SECTOR_MISS] = 0
	L2_cache_stats_breakdown[TEXTURE_ACC_R][MSHR_HIT] = 0
	L2_cache_stats_breakdown[GLOBAL_ACC_W][HIT] = 65536
	L2_cache_stats_breakdown[GLOBAL_ACC_W][HIT_RESERVED] = 0
	L2_cache_stats_breakdown[GLOBAL_ACC_W][MISS] = 0
	L2_cache_stats_breakdown[GLOBAL_ACC_W][RESERVATION_FAIL] = 0
	L2_cache_stats_breakdown[GLOBAL_ACC_W][SECTOR_MISS] = 0
	L2_cache_stats_breakdown[GLOBAL_ACC_W][MSHR_HIT] = 0
	L2_cache_stats_breakdown[LOCAL_ACC_W][HIT] = 0
	L2_cache_stats_breakdown[LOCAL_ACC_W][HIT_RESERVED] = 0
	L2_cache_stats_breakdown[LOCAL_ACC_W][MISS] = 0
	L2_cache_stats_breakdown[LOCAL_ACC_W][RESERVATION_FAIL] = 0
	L2_cache_stats_breakdown[LOCAL_ACC_W][SECTOR_MISS] = 0
	L2_cache_stats_breakdown[LOCAL_ACC_W][MSHR_HIT] = 0
	L2_cache_stats_breakdown[L1_WRBK_ACC][HIT] = 0
	L2_cache_stats_breakdown[L1_WRBK_ACC][HIT_RESERVED] = 0
	L2_cache_stats_breakdown[L1_WRBK_ACC][MISS] = 0
	L2_cache_stats_breakdown[L1_WRBK_ACC][RESERVATION_FAIL] = 0
	L2_cache_stats_breakdown[L1_WRBK_ACC][SECTOR_MISS] = 0
	L2_cache_stats_breakdown[L1_WRBK_ACC][MSHR_HIT] = 0
	L2_cache_stats_breakdown[L2_WRBK_ACC][HIT] = 0
	L2_cache_stats_breakdown[L2_WRBK_ACC][HIT_RESERVED] = 0
	L2_cache_stats_breakdown[L2_WRBK_ACC][MISS] = 0
	L2_cache_stats_breakdown[L2_WRBK_ACC][RESERVATION_FAIL] = 0
	L2_cache_stats_breakdown[L2_WRBK_ACC][SECTOR_MISS] = 0
	L2_cache_stats_breakdown[L2_WRBK_ACC][MSHR_HIT] = 0
	L2_cache_stats_breakdown[INST_ACC_R][HIT] = 880
	L2_cache_stats_breakdown[INST_ACC_R][HIT_RESERVED] = 240
	L2_cache_stats_breakdown[INST_ACC_R][MISS] = 20
	L2_cache_stats_breakdown[INST_ACC_R][RESERVATION_FAIL] = 2118
	L2_cache_stats_breakdown[INST_ACC_R][SECTOR_MISS] = 60
	L2_cache_stats_breakdown[INST_ACC_R][MSHR_HIT] = 240
	L2_cache_stats_breakdown[L1_WR_ALLOC_R][HIT] = 0
	L2_cache_stats_breakdown[L1_WR_ALLOC_R][HIT_RESERVED] = 0
	L2_cache_stats_breakdown[L1_WR_ALLOC_R][MISS] = 0
	L2_cache_stats_breakdown[L1_WR_ALLOC_R][RESERVATION_FAIL] = 0
	L2_cache_stats_breakdown[L1_WR_ALLOC_R][SECTOR_MISS] = 0
	L2_cache_stats_breakdown[L1_WR_ALLOC_R][MSHR_HIT] = 0
	L2_cache_stats_breakdown[L2_WR_ALLOC_R][HIT] = 0
	L2_cache_stats_breakdown[L2_WR_ALLOC_R][HIT_RESERVED] = 0
	L2_cache_stats_breakdown[L2_WR_ALLOC_R][MISS] = 0
	L2_cache_stats_breakdown[L2_WR_ALLOC_R][RESERVATION_FAIL] = 0
	L2_cache_stats_breakdown[L2_WR_ALLOC_R][SECTOR_MISS] = 0
	L2_cache_stats_breakdown[L2_WR_ALLOC_R][MSHR_HIT] = 0
	L2_cache_stats_breakdown[GLOBAL_ACC_R][TOTAL_ACCESS] = 151168
	L2_cache_stats_breakdown[CONST_ACC_R][TOTAL_ACCESS] = 120
	L2_cache_stats_breakdown[GLOBAL_ACC_W][TOTAL_ACCESS] = 65536
	L2_cache_stats_breakdown[INST_ACC_R][TOTAL_ACCESS] = 1200
L2_total_cache_reservation_fail_breakdown:
	L2_cache_stats_fail_breakdown[GLOBAL_ACC_R][MISS_QUEUE_FULL] = 851
	L2_cache_stats_fail_breakdown[CONST_ACC_R][MSHR_MERGE_ENRTY_FAIL] = 713
	L2_cache_stats_fail_breakdown[INST_ACC_R][MSHR_MERGE_ENRTY_FAIL] = 2118
L2_cache_data_port_util = 0.095
L2_cache_fill_port_util = 0.092

icnt_total_pkts_mem_to_simt=218024
icnt_total_pkts_simt_to_mem=103688
LD_mem_lat_dist  0 0 0 0 0 0 0 0 0 0 0 0 0 0 0 0 0 0 0 0 0 0 0 0 0 0 0
ST_mem_lat_dist  0 0 0 0 0 0 0 0 0 0 0 0 0 0 0 0 0 0 0 0 0 0 0 0 0 0 0
----------------------------Interconnect-DETAILS--------------------------------
Class 0:
Packet latency average = 17.8202
	minimum = 5
	maximum = 211
Network latency average = 17.7338
	minimum = 5
	maximum = 209
Slowest packet = 94415
Flit latency average = 17.7338
	minimum = 5
	maximum = 209
Slowest flit = 118991
Fragmentation average = 0
	minimum = 0
	maximum = 0
Injected packet rate average = 0.25416
	minimum = 0.125168 (at node 12)
	maximum = 0.410727 (at node 23)
Accepted packet rate average = 0.25416
	minimum = 0.165106 (at node 16)
	maximum = 0.341182 (at node 4)
Injected flit rate average = 0.25416
	minimum = 0.125168 (at node 12)
	maximum = 0.410727 (at node 23)
Accepted flit rate average= 0.25416
	minimum = 0.165106 (at node 16)
	maximum = 0.341182 (at node 4)
Injected packet length average = 1
Accepted packet length average = 1
Total in-flight flits = 0 (0 measured)
====== Overall Traffic Statistics ======
====== Traffic class 0 ======
Packet latency average = 23.1533 (2 samples)
	minimum = 5 (2 samples)
	maximum = 276.5 (2 samples)
Network latency average = 22.2513 (2 samples)
	minimum = 5 (2 samples)
	maximum = 273 (2 samples)
Flit latency average = 21.2502 (2 samples)
	minimum = 5 (2 samples)
	maximum = 271.5 (2 samples)
Fragmentation average = 0.000456676 (2 samples)
	minimum = 0 (2 samples)
	maximum = 29 (2 samples)
Injected packet rate average = 0.18176 (2 samples)
	minimum = 0.0810718 (2 samples)
	maximum = 0.304295 (2 samples)
Accepted packet rate average = 0.18176 (2 samples)
	minimum = 0.106824 (2 samples)
	maximum = 0.253555 (2 samples)
Injected flit rate average = 0.197909 (2 samples)
	minimum = 0.108324 (2 samples)
	maximum = 0.304295 (2 samples)
Accepted flit rate average = 0.197909 (2 samples)
	minimum = 0.143232 (2 samples)
	maximum = 0.253555 (2 samples)
Injected packet size average = 1.08885 (2 samples)
Accepted packet size average = 1.08885 (2 samples)
Hops average = 1 (2 samples)
----------------------------END-of-Interconnect-DETAILS-------------------------


gpgpu_simulation_time = 0 days, 0 hrs, 0 min, 21 sec (21 sec)
gpgpu_simulation_rate = 890977 (inst/sec)
gpgpu_simulation_rate = 2826 (cycle/sec)
gpgpu_silicon_slowdown = 247699x
21285.607422
GPGPU-Sim: exit_simulation called
GPGPU-Sim: *** simulation thread exiting ***
GPGPU-Sim: simulation thread signaled exit
SUCCESS
GPGPU-Sim: *** exit detected ***
